voltage-tiling/data/p13u_violations/p13uhs22_1247--p13udt26466/Lines.dss
New Line.l(r:p13udt4537lv-p13ulv10050) Units=km Length=0.0128133 bus1=p13udt4537lv.1.2 bus2=p13ulv10050.1.2 switch=n enabled=y phases=2 Linecode=1P_UG_AL_1/0_Brenau_2

New Line.l(r:p13udt4537lv-p13ulv91474) Units=km Length=0.0136592 bus1=p13udt4537lv.1.2 bus2=p13ulv91474.1.2 switch=n enabled=y phases=2 Linecode=1P_UG_AL_1/0_Brenau_2

New Line.l(r:p13udt4537lv-p13ulv91498) Units=km Length=0.0325941 bus1=p13udt4537lv.1.2 bus2=p13ulv91498.1.2 switch=n enabled=y phases=2 Linecode=1P_UG_AL_1/0_Brenau_2

New Line.l(r:p13udm19605-p13ulv91419) Units=km Length=0.0113801 bus1=p13udm19605.1.2 bus2=p13ulv91419.1.2 switch=n enabled=y phases=2 Linecode=1P_UG_AL_1/0_Brenau_2

New Line.l(r:p13udm19605-p13ulv91477) Units=km Length=0.0220145 bus1=p13udm19605.1.2 bus2=p13ulv91477.1.2 switch=n enabled=y phases=2 Linecode=1P_UG_AL_1/0_Brenau_2

New Line.l(r:p13udm19605-p13udt4537lv) Units=km Length=0.0194946 bus1=p13udt4537lv.1.2 bus2=p13udm19605.1.2 switch=n enabled=y phases=2 Linecode=1P_UG_AL_1/0_Brenau_2

New Line.l(r:p13udm19606-p13ulv91433) Units=km Length=0.0122177 bus1=p13udm19606.1.2 bus2=p13ulv91433.1.2 switch=n enabled=y phases=2 Linecode=1P_UG_AL_1/0_Brenau_2

New Line.l(r:p13udm19606-p13ulv91479) Units=km Length=0.0135864 bus1=p13udm19606.1.2 bus2=p13ulv91479.1.2 switch=n enabled=y phases=2 Linecode=1P_UG_AL_1/0_Brenau_2

New Line.l(r:p13udm19610-p13ulv91496) Units=km Length=0.0135489 bus1=p13udm19610.1.2 bus2=p13ulv91496.1.2 switch=n enabled=y phases=2 Linecode=1P_UG_AL_1/0_Brenau_2

New Line.l(r:p13udm19606-p13udm19610) Units=km Length=0.0389839 bus1=p13udm19606.1.2 bus2=p13udm19610.1.2 switch=n enabled=y phases=2 Linecode=1P_UG_AL_1/0_Brenau_2

New Line.l(r:p13udm19606-p13udt4537lv) Units=km Length=0.00974462 bus1=p13udt4537lv.1.2 bus2=p13udm19606.1.2 switch=n enabled=y phases=2 Linecode=1P_UG_AL_4/0_Sweetbriar_2

New Line.l(r:p13udt4538lv-p13ulv10051) Units=km Length=0.0361538 bus1=p13udt4538lv.1.2 bus2=p13ulv10051.1.2 switch=n enabled=y phases=2 Linecode=1P_UG_AL_1/0_Brenau_2

New Line.l(r:p13udt4538lv-p13ulv93278) Units=km Length=0.0116122 bus1=p13udt4538lv.1.2 bus2=p13ulv93278.1.2 switch=n enabled=y phases=2 Linecode=1P_UG_AL_1/0_Brenau_2

New Line.l(r:p13udt4538lv-p13ulv93312) Units=km Length=0.0234791 bus1=p13udt4538lv.1.2 bus2=p13ulv93312.1.2 switch=n enabled=y phases=2 Linecode=1P_UG_AL_1/0_Brenau_2

New Line.l(r:p13udt4538lv-p13ulv93319) Units=km Length=0.0136886 bus1=p13udt4538lv.1.2 bus2=p13ulv93319.1.2 switch=n enabled=y phases=2 Linecode=1P_UG_AL_1/0_Brenau_2

New Line.l(r:p13udm19613-p13ulv88504) Units=km Length=0.0120352 bus1=p13udm19613.1.2 bus2=p13ulv88504.1.2 switch=n enabled=y phases=2 Linecode=1P_UG_AL_1/0_Brenau_2

New Line.l(r:p13udm19613-p13ulv93325) Units=km Length=0.0136244 bus1=p13udm19613.1.2 bus2=p13ulv93325.1.2 switch=n enabled=y phases=2 Linecode=1P_UG_AL_1/0_Brenau_2

New Line.l(r:p13udm19613-p13udt4538lv) Units=km Length=0.00969078 bus1=p13udt4538lv.1.2 bus2=p13udm19613.1.2 switch=n enabled=y phases=2 Linecode=1P_UG_AL_1/0_Brenau_2

New Line.l(r:p13udt4541lv-p13ulv10055) Units=km Length=0.00924578 bus1=p13udt4541lv.1.2 bus2=p13ulv10055.1.2 switch=n enabled=y phases=2 Linecode=1P_UG_AL_1/0_Brenau_2

New Line.l(r:p13udt6440lv-p13ulv14320) Units=km Length=0.009266540000000002 bus1=p13udt6440lv.1.2 bus2=p13ulv14320.1.2 switch=n enabled=y phases=2 Linecode=1P_UG_AL_1/0_Brenau_2

New Line.l(r:p13udm27743-p13ulv14355) Units=km Length=0.00926983 bus1=p13udm27743.1.2 bus2=p13ulv14355.1.2 switch=n enabled=y phases=2 Linecode=1P_UG_AL_2/0_Converse_2

New Line.l(r:p13udm27743-p13udt6440lv) Units=km Length=0.00886484 bus1=p13udt6440lv.1.2 bus2=p13udm27743.1.2 switch=n enabled=y phases=2 Linecode=1P_UG_AL_2/0_Converse_2

New Line.l(r:p13udm27744-p13ulv90531) Units=km Length=0.0327316 bus1=p13udm27744.1.2 bus2=p13ulv90531.1.2 switch=n enabled=y phases=2 Linecode=1P_UG_AL_1/0_Brenau_2

New Line.l(r:p13udm27744-p13udt6440lv) Units=km Length=0.00886995 bus1=p13udt6440lv.1.2 bus2=p13udm27744.1.2 switch=n enabled=y phases=2 Linecode=1P_UG_AL_1/0_Brenau_2

New Line.l(r:p13udt6441lv-p13ulv14321) Units=km Length=0.0130601 bus1=p13udt6441lv.1.2 bus2=p13ulv14321.1.2 switch=n enabled=y phases=2 Linecode=1P_UG_AL_4/0_Sweetbriar_2

New Line.l(r:p13udm27746-p13ulv14358) Units=km Length=0.0149165 bus1=p13udm27746.1.2 bus2=p13ulv14358.1.2 switch=n enabled=y phases=2 Linecode=1P_UG_AL_1/0_Brenau_2

New Line.l(r:p13udm27746-p13udt6441lv) Units=km Length=0.00949764 bus1=p13udt6441lv.1.2 bus2=p13udm27746.1.2 switch=n enabled=y phases=2 Linecode=1P_UG_AL_1/0_Brenau_2

New Line.l(r:p13udm27747-p13ulv90517) Units=km Length=0.0321008 bus1=p13udm27747.1.2 bus2=p13ulv90517.1.2 switch=n enabled=y phases=2 Linecode=1P_UG_AL_1/0_Brenau_2

New Line.l(r:p13udm27747-p13udt6441lv) Units=km Length=0.00886995 bus1=p13udt6441lv.1.2 bus2=p13udm27747.1.2 switch=n enabled=y phases=2 Linecode=1P_UG_AL_1/0_Brenau_2

New Line.l(r:p13udm27748-p13ulv14322) Units=km Length=0.0148118 bus1=p13udm27748.1.2 bus2=p13ulv14322.1.2 switch=n enabled=y phases=2 Linecode=1P_UG_AL_4/0_Sweetbriar_2

New Line.l(r:p13udm27748-p13ulv90481) Units=km Length=0.0139753 bus1=p13udm27748.1.2 bus2=p13ulv90481.1.2 switch=n enabled=y phases=2 Linecode=1P_UG_AL_1/0_Brenau_2

New Line.l(r:p13udm27748-p13ulv90498) Units=km Length=0.00899841 bus1=p13udm27748.1.2 bus2=p13ulv90498.1.2 switch=n enabled=y phases=2 Linecode=1P_UG_AL_2/0_Converse_2

New Line.l(r:p13udm27749-p13ulv90473) Units=km Length=0.0146691 bus1=p13udm27749.1.2 bus2=p13ulv90473.1.2 switch=n enabled=y phases=2 Linecode=1P_UG_AL_1/0_Brenau_2

New Line.l(r:p13udm27748-p13udm27749) Units=km Length=0.00949253 bus1=p13udm27748.1.2 bus2=p13udm27749.1.2 switch=n enabled=y phases=2 Linecode=1P_UG_AL_1/0_Brenau_2

New Line.l(r:p13udm27748-p13udt6442lv) Units=km Length=0.00948905 bus1=p13udt6442lv.1.2 bus2=p13udm27748.1.2 switch=n enabled=y phases=2 Linecode=1P_UG_AL_4/0_Sweetbriar_2

New Line.l(r:p13udm27751-p13ulv90497) Units=km Length=0.0157465 bus1=p13udm27751.1.2 bus2=p13ulv90497.1.2 switch=n enabled=y phases=2 Linecode=1P_UG_AL_1/0_Brenau_2

New Line.l(r:p13udm27751-p13udt6442lv) Units=km Length=0.0272375 bus1=p13udt6442lv.1.2 bus2=p13udm27751.1.2 switch=n enabled=y phases=2 Linecode=1P_UG_AL_1/0_Brenau_2

New Line.l(r:p13udt6443lv-p13ulv14360) Units=km Length=0.0356147 bus1=p13udt6443lv.1.2 bus2=p13ulv14360.1.2 switch=n enabled=y phases=2 Linecode=1P_UG_AL_1/0_Brenau_2

New Line.l(r:p13udm27754-p13ulv14329) Units=km Length=0.015067800000000001 bus1=p13udm27754.1.2 bus2=p13ulv14329.1.2 switch=n enabled=y phases=2 Linecode=1P_UG_AL_1/0_Brenau_2

New Line.l(r:p13udm27754-p13ulv90456) Units=km Length=0.0139156 bus1=p13udm27754.1.2 bus2=p13ulv90456.1.2 switch=n enabled=y phases=2 Linecode=1P_UG_AL_1/0_Brenau_2

New Line.l(r:p13udm27755-p13ulv14330) Units=km Length=0.0137465 bus1=p13udm27755.1.2 bus2=p13ulv14330.1.2 switch=n enabled=y phases=2 Linecode=1P_UG_AL_1/0_Brenau_2

New Line.l(r:p13udm27756-p13ulv14331) Units=km Length=0.015192300000000002 bus1=p13udm27756.1.2 bus2=p13ulv14331.1.2 switch=n enabled=y phases=2 Linecode=1P_UG_AL_1/0_Brenau_2

New Line.l(r:p13udm27755-p13udm27756) Units=km Length=0.00948393 bus1=p13udm27755.1.2 bus2=p13udm27756.1.2 switch=n enabled=y phases=2 Linecode=1P_UG_AL_1/0_Brenau_2

New Line.l(r:p13udm27754-p13udm27755) Units=km Length=0.00949764 bus1=p13udm27754.1.2 bus2=p13udm27755.1.2 switch=n enabled=y phases=2 Linecode=1P_UG_AL_1/0_Brenau_2

New Line.l(r:p13udm27754-p13udt6443lv) Units=km Length=0.00949764 bus1=p13udt6443lv.1.2 bus2=p13udm27754.1.2 switch=n enabled=y phases=2 Linecode=1P_UG_AL_4/0_Sweetbriar_2

New Line.l(r:p13udm27759-p13ulv90467) Units=km Length=0.0146129 bus1=p13udm27759.1.2 bus2=p13ulv90467.1.2 switch=n enabled=y phases=2 Linecode=1P_UG_AL_1/0_Brenau_2

New Line.l(r:p13udm27759-p13ulv90476) Units=km Length=0.0145169 bus1=p13udm27759.1.2 bus2=p13ulv90476.1.2 switch=n enabled=y phases=2 Linecode=1P_UG_AL_1/0_Brenau_2

New Line.l(r:p13udm27753-p13ulv14323) Units=km Length=0.0151396 bus1=p13udm27753.1.2 bus2=p13ulv14323.1.2 switch=n enabled=y phases=2 Linecode=1P_UG_AL_2/0_Converse_2

New Line.l(r:p13udm27753-p13udm27759) Units=km Length=0.00949764 bus1=p13udm27759.1.2 bus2=p13udm27753.1.2 switch=n enabled=y phases=2 Linecode=1P_UG_AL_2/0_Converse_2

New Line.l(r:p13udm27759-p13udt6443lv) Units=km Length=0.00948905 bus1=p13udt6443lv.1.2 bus2=p13udm27759.1.2 switch=n enabled=y phases=2 Linecode=1P_UG_AL_4/0_Sweetbriar_2

New Line.l(r:p13udt6447lv-p13ulv90349) Units=km Length=0.0138954 bus1=p13udt6447lv.1.2 bus2=p13ulv90349.1.2 switch=n enabled=y phases=2 Linecode=1P_UG_AL_1/0_Brenau_2

New Line.l(r:p13udm27771-p13ulv14372) Units=km Length=0.00717279 bus1=p13udm27771.1.2 bus2=p13ulv14372.1.2 switch=n enabled=y phases=2 Linecode=1P_UG_AL_1/0_Brenau_2

New Line.l(r:p13udm27771-p13ulv14391) Units=km Length=0.00755175 bus1=p13udm27771.1.2 bus2=p13ulv14391.1.2 switch=n enabled=y phases=2 Linecode=1P_UG_AL_1/0_Brenau_2

New Line.l(r:p13udm27769-p13ulv14338) Units=km Length=0.0151007 bus1=p13udm27769.1.2 bus2=p13ulv14338.1.2 switch=n enabled=y phases=2 Linecode=1P_UG_AL_1/0_Brenau_2

New Line.l(r:p13udm27770-p13ulv14371) Units=km Length=0.009793520000000002 bus1=p13udm27770.1.2 bus2=p13ulv14371.1.2 switch=n enabled=y phases=2 Linecode=1P_UG_AL_1/0_Brenau_2

New Line.l(r:p13udm27769-p13udm27770) Units=km Length=0.00998642 bus1=p13udm27769.1.2 bus2=p13udm27770.1.2 switch=n enabled=y phases=2 Linecode=1P_UG_AL_1/0_Brenau_2

New Line.l(r:p13udm27769-p13udm27771) Units=km Length=0.018866700000000004 bus1=p13udm27771.1.2 bus2=p13udm27769.1.2 switch=n enabled=y phases=2 Linecode=1P_UG_AL_2/0_Converse_2

New Line.l(r:p13udm27773-p13ulv14392) Units=km Length=0.0146565 bus1=p13udm27773.1.2 bus2=p13ulv14392.1.2 switch=n enabled=y phases=2 Linecode=1P_UG_AL_1/0_Brenau_2

New Line.l(r:p13udm27771-p13udm27773) Units=km Length=0.0177607 bus1=p13udm27771.1.2 bus2=p13udm27773.1.2 switch=n enabled=y phases=2 Linecode=1P_UG_AL_1/0_Brenau_2

New Line.l(r:p13udm27771-p13udt6447lv) Units=km Length=0.0184589 bus1=p13udt6447lv.1.2 bus2=p13udm27771.1.2 switch=n enabled=y phases=2 Linecode=1P_UG_AL_4/0_Sweetbriar_2

New Line.l(r:p13udm27776-p13ulv90342) Units=km Length=0.0139178 bus1=p13udm27776.1.2 bus2=p13ulv90342.1.2 switch=n enabled=y phases=2 Linecode=1P_UG_AL_1/0_Brenau_2

New Line.l(r:p13udm27774-p13ulv14393) Units=km Length=0.0118649 bus1=p13udm27774.1.2 bus2=p13ulv14393.1.2 switch=n enabled=y phases=2 Linecode=1P_UG_AL_1/0_Brenau_2

New Line.l(r:p13udm27774-p13ulv90331) Units=km Length=0.0140341 bus1=p13udm27774.1.2 bus2=p13ulv90331.1.2 switch=n enabled=y phases=2 Linecode=1P_UG_AL_1/0_Brenau_2

New Line.l(r:p13udm27774-p13udm27776) Units=km Length=0.00957856 bus1=p13udm27776.1.2 bus2=p13udm27774.1.2 switch=n enabled=y phases=2 Linecode=1P_UG_AL_2/0_Converse_2

New Line.l(r:p13udm27776-p13udt6447lv) Units=km Length=0.00958379 bus1=p13udt6447lv.1.2 bus2=p13udm27776.1.2 switch=n enabled=y phases=2 Linecode=1P_UG_AL_4/0_Sweetbriar_2

New Line.l(r:p13udt6448lv-p13ulv14342) Units=km Length=0.0142027 bus1=p13udt6448lv.1.2 bus2=p13ulv14342.1.2 switch=n enabled=y phases=2 Linecode=1P_UG_AL_1/0_Brenau_2

New Line.l(r:p13udt6448lv-p13ulv14397) Units=km Length=0.0124953 bus1=p13udt6448lv.1.2 bus2=p13ulv14397.1.2 switch=n enabled=y phases=2 Linecode=1P_UG_AL_1/0_Brenau_2

New Line.l(r:p13udm27779-p13ulv14343) Units=km Length=0.011710900000000002 bus1=p13udm27779.1.2 bus2=p13ulv14343.1.2 switch=n enabled=y phases=2 Linecode=1P_UG_AL_4/0_Sweetbriar_2

New Line.l(r:p13udm27779-p13ulv92210) Units=km Length=0.0141477 bus1=p13udm27779.1.2 bus2=p13ulv92210.1.2 switch=n enabled=y phases=2 Linecode=1P_UG_AL_1/0_Brenau_2

New Line.l(r:p13udm27779-p13udt6448lv) Units=km Length=0.00958379 bus1=p13udt6448lv.1.2 bus2=p13udm27779.1.2 switch=n enabled=y phases=2 Linecode=1P_UG_AL_4/0_Sweetbriar_2

New Line.l(r:p13udm27781-p13ulv14396) Units=km Length=0.011539900000000002 bus1=p13udm27781.1.2 bus2=p13ulv14396.1.2 switch=n enabled=y phases=2 Linecode=1P_UG_AL_1/0_Brenau_2

New Line.l(r:p13udm27781-p13ulv92243) Units=km Length=0.0140076 bus1=p13udm27781.1.2 bus2=p13ulv92243.1.2 switch=n enabled=y phases=2 Linecode=1P_UG_AL_1/0_Brenau_2

New Line.l(r:p13udm27780-p13ulv14395) Units=km Length=0.011524 bus1=p13udm27780.1.2 bus2=p13ulv14395.1.2 switch=n enabled=y phases=2 Linecode=1P_UG_AL_1/0_Brenau_2

New Line.l(r:p13udm27780-p13ulv92255) Units=km Length=0.013956 bus1=p13udm27780.1.2 bus2=p13ulv92255.1.2 switch=n enabled=y phases=2 Linecode=1P_UG_AL_1/0_Brenau_2

New Line.l(r:p13udm27780-p13udm27781) Units=km Length=0.00958379 bus1=p13udm27781.1.2 bus2=p13udm27780.1.2 switch=n enabled=y phases=2 Linecode=1P_UG_AL_1/0_Brenau_2

New Line.l(r:p13udm27781-p13udt6448lv) Units=km Length=0.00957856 bus1=p13udt6448lv.1.2 bus2=p13udm27781.1.2 switch=n enabled=y phases=2 Linecode=1P_UG_AL_4/0_Sweetbriar_2

New Line.l(r:p13udt6450lv-p13ulv14347) Units=km Length=0.058522500000000005 bus1=p13udt6450lv.1.2 bus2=p13ulv14347.1.2 switch=n enabled=y phases=2 Linecode=1P_UG_AL_2/0_Converse_2

New Line.l(r:p13udt6450lv-p13ulv92149) Units=km Length=0.0421216 bus1=p13udt6450lv.1.2 bus2=p13ulv92149.1.2 switch=n enabled=y phases=2 Linecode=1P_UG_AL_1/0_Brenau_2

New Line.l(r:p13udm27789-p13ulv92193) Units=km Length=0.0326954 bus1=p13udm27789.1.2 bus2=p13ulv92193.1.2 switch=n enabled=y phases=2 Linecode=1P_UG_AL_1/0_Brenau_2

New Line.l(r:p13udm27789-p13udt6450lv) Units=km Length=0.0257783 bus1=p13udt6450lv.1.2 bus2=p13udm27789.1.2 switch=n enabled=y phases=2 Linecode=1P_UG_AL_1/0_Brenau_2

New Line.l(r:p13udt6453lv-p13ulv14354) Units=km Length=0.015802 bus1=p13udt6453lv.1.2 bus2=p13ulv14354.1.2 switch=n enabled=y phases=2 Linecode=1P_OH_AL_2/0_Rucina_2

New Line.l(r:p13udt6456lv-p13ulv14362) Units=km Length=0.013593000000000001 bus1=p13udt6456lv.1.2 bus2=p13ulv14362.1.2 switch=n enabled=y phases=2 Linecode=1P_UG_AL_1/0_Brenau_2

New Line.l(r:p13udm27804-p13ulv14361) Units=km Length=0.0143916 bus1=p13udm27804.1.2 bus2=p13ulv14361.1.2 switch=n enabled=y phases=2 Linecode=1P_UG_AL_1/0_Brenau_2

New Line.l(r:p13udm27804-p13ulv90453) Units=km Length=0.0170791 bus1=p13udm27804.1.2 bus2=p13ulv90453.1.2 switch=n enabled=y phases=2 Linecode=1P_UG_AL_1/0_Brenau_2

New Line.l(r:p13udm27804-p13udt6456lv) Units=km Length=0.00897798 bus1=p13udt6456lv.1.2 bus2=p13udm27804.1.2 switch=n enabled=y phases=2 Linecode=1P_UG_AL_4/0_Sweetbriar_2

New Line.l(r:p13udm27807-p13ulv90428) Units=km Length=0.0120906 bus1=p13udm27807.1.2 bus2=p13ulv90428.1.2 switch=n enabled=y phases=2 Linecode=1P_UG_AL_2/0_Converse_2

New Line.l(r:p13udm27807-p13ulv90455) Units=km Length=0.0348676 bus1=p13udm27807.1.2 bus2=p13ulv90455.1.2 switch=n enabled=y phases=2 Linecode=1P_UG_AL_1/0_Brenau_2

New Line.l(r:p13udm27806-p13ulv14363) Units=km Length=0.0134383 bus1=p13udm27806.1.2 bus2=p13ulv14363.1.2 switch=n enabled=y phases=2 Linecode=1P_UG_AL_1/0_Brenau_2

New Line.l(r:p13udm27806-p13udm27807) Units=km Length=0.00898657 bus1=p13udm27807.1.2 bus2=p13udm27806.1.2 switch=n enabled=y phases=2 Linecode=1P_UG_AL_1/0_Brenau_2

New Line.l(r:p13udm27807-p13udt6456lv) Units=km Length=0.00898145 bus1=p13udt6456lv.1.2 bus2=p13udm27807.1.2 switch=n enabled=y phases=2 Linecode=1P_UG_AL_4/0_Sweetbriar_2

New Line.l(r:p13udt6457lv-p13ulv14365) Units=km Length=0.0129668 bus1=p13udt6457lv.1.2 bus2=p13ulv14365.1.2 switch=n enabled=y phases=2 Linecode=1P_UG_AL_2/0_Converse_2

New Line.l(r:p13udt6457lv-p13ulv90407) Units=km Length=0.0135768 bus1=p13udt6457lv.1.2 bus2=p13ulv90407.1.2 switch=n enabled=y phases=2 Linecode=1P_UG_AL_1/0_Brenau_2

New Line.l(r:p13udt6458lv-p13ulv14368) Units=km Length=0.014428 bus1=p13udt6458lv.1.2 bus2=p13ulv14368.1.2 switch=n enabled=y phases=2 Linecode=1P_UG_AL_1/0_Brenau_2

New Line.l(r:p13udt6458lv-p13ulv90383) Units=km Length=0.0147127 bus1=p13udt6458lv.1.2 bus2=p13ulv90383.1.2 switch=n enabled=y phases=2 Linecode=1P_UG_AL_1/0_Brenau_2

New Line.l(r:p13udm27812-p13ulv14367) Units=km Length=0.012523600000000001 bus1=p13udm27812.1.2 bus2=p13ulv14367.1.2 switch=n enabled=y phases=2 Linecode=1P_UG_AL_1/0_Brenau_2

New Line.l(r:p13udm27812-p13ulv90377) Units=km Length=0.032268 bus1=p13udm27812.1.2 bus2=p13ulv90377.1.2 switch=n enabled=y phases=2 Linecode=1P_UG_AL_1/0_Brenau_2

New Line.l(r:p13udm27812-p13ulv90397) Units=km Length=0.0143134 bus1=p13udm27812.1.2 bus2=p13ulv90397.1.2 switch=n enabled=y phases=2 Linecode=1P_UG_AL_1/0_Brenau_2

New Line.l(r:p13udm27812-p13udt6458lv) Units=km Length=0.00998642 bus1=p13udt6458lv.1.2 bus2=p13udm27812.1.2 switch=n enabled=y phases=2 Linecode=1P_UG_AL_1/0_Brenau_2

New Line.l(r:p13udm27814-p13ulv14369) Units=km Length=0.0118744 bus1=p13udm27814.1.2 bus2=p13ulv14369.1.2 switch=n enabled=y phases=2 Linecode=1P_UG_AL_1/0_Brenau_2

New Line.l(r:p13udm27814-p13ulv90373) Units=km Length=0.0147915 bus1=p13udm27814.1.2 bus2=p13ulv90373.1.2 switch=n enabled=y phases=2 Linecode=1P_UG_AL_1/0_Brenau_2

New Line.l(r:p13udm27815-p13ulv14370) Units=km Length=0.0114642 bus1=p13udm27815.1.2 bus2=p13ulv14370.1.2 switch=n enabled=y phases=2 Linecode=1P_UG_AL_1/0_Brenau_2

New Line.l(r:p13udm27814-p13udm27815) Units=km Length=0.00998642 bus1=p13udm27814.1.2 bus2=p13udm27815.1.2 switch=n enabled=y phases=2 Linecode=1P_UG_AL_1/0_Brenau_2

New Line.l(r:p13udm27814-p13udt6458lv) Units=km Length=0.0199728 bus1=p13udt6458lv.1.2 bus2=p13udm27814.1.2 switch=n enabled=y phases=2 Linecode=1P_UG_AL_2/0_Converse_2

New Line.l(r:p13udt6459lv-p13ulv14373) Units=km Length=0.0108945 bus1=p13udt6459lv.1.2 bus2=p13ulv14373.1.2 switch=n enabled=y phases=2 Linecode=1P_UG_AL_1/0_Brenau_2

New Line.l(r:p13udt6459lv-p13ulv92212) Units=km Length=0.0132143 bus1=p13udt6459lv.1.2 bus2=p13ulv92212.1.2 switch=n enabled=y phases=2 Linecode=1P_UG_AL_1/0_Brenau_2

New Line.l(r:p13udm27821-p13ulv14374) Units=km Length=0.0107167 bus1=p13udm27821.1.2 bus2=p13ulv14374.1.2 switch=n enabled=y phases=2 Linecode=1P_UG_AL_1/0_Brenau_2

New Line.l(r:p13udm27821-p13ulv92204) Units=km Length=0.01356 bus1=p13udm27821.1.2 bus2=p13ulv92204.1.2 switch=n enabled=y phases=2 Linecode=1P_UG_AL_1/0_Brenau_2

New Line.l(r:p13udm27822-p13ulv14375) Units=km Length=0.00766152 bus1=p13udm27822.1.2 bus2=p13ulv14375.1.2 switch=n enabled=y phases=2 Linecode=1P_UG_AL_1/0_Brenau_2

New Line.l(r:p13udm27822-p13ulv17613) Units=km Length=0.0127887 bus1=p13udm27822.1.2 bus2=p13ulv17613.1.2 switch=n enabled=y phases=2 Linecode=1P_UG_AL_1/0_Brenau_2

New Line.l(r:p13udm27821-p13udm27822) Units=km Length=0.00941951 bus1=p13udm27821.1.2 bus2=p13udm27822.1.2 switch=n enabled=y phases=2 Linecode=1P_UG_AL_1/0_Brenau_2

New Line.l(r:p13udm27821-p13udt6459lv) Units=km Length=0.00941448 bus1=p13udt6459lv.1.2 bus2=p13udm27821.1.2 switch=n enabled=y phases=2 Linecode=1P_UG_AL_4/0_Sweetbriar_2

New Line.l(r:p13udm27826-p13ulv92247) Units=km Length=0.0105453 bus1=p13udm27826.1.2 bus2=p13ulv92247.1.2 switch=n enabled=y phases=2 Linecode=1P_UG_AL_1/0_Brenau_2

New Line.l(r:p13udm27827-p13ulv92254) Units=km Length=0.0103085 bus1=p13udm27827.1.2 bus2=p13ulv92254.1.2 switch=n enabled=y phases=2 Linecode=1P_UG_AL_1/0_Brenau_2

New Line.l(r:p13udm27826-p13udm27827) Units=km Length=0.0183084 bus1=p13udm27826.1.2 bus2=p13udm27827.1.2 switch=n enabled=y phases=2 Linecode=1P_UG_AL_1/0_Brenau_2

New Line.l(r:p13udm27826-p13udt6459lv) Units=km Length=0.00941951 bus1=p13udt6459lv.1.2 bus2=p13udm27826.1.2 switch=n enabled=y phases=2 Linecode=1P_UG_AL_1/0_Brenau_2

New Line.l(r:p13udt6460lv-p13ulv92246) Units=km Length=0.0117385 bus1=p13udt6460lv.1.2 bus2=p13ulv92246.1.2 switch=n enabled=y phases=2 Linecode=1P_UG_AL_1/0_Brenau_2

New Line.l(r:p13udm27828-p13ulv14376) Units=km Length=0.0122501 bus1=p13udm27828.1.2 bus2=p13ulv14376.1.2 switch=n enabled=y phases=2 Linecode=1P_UG_AL_1/0_Brenau_2

New Line.l(r:p13udm27828-p13ulv14377) Units=km Length=0.0125158 bus1=p13udm27828.1.2 bus2=p13ulv14377.1.2 switch=n enabled=y phases=2 Linecode=1P_UG_AL_1/0_Brenau_2

New Line.l(r:p13udm27828-p13ulv17648) Units=km Length=0.0134492 bus1=p13udm27828.1.2 bus2=p13ulv17648.1.2 switch=n enabled=y phases=2 Linecode=1P_UG_AL_1/0_Brenau_2

New Line.l(r:p13udm27831-p13ulv92222) Units=km Length=0.0135407 bus1=p13udm27831.1.2 bus2=p13ulv92222.1.2 switch=n enabled=y phases=2 Linecode=1P_UG_AL_1/0_Brenau_2

New Line.l(r:p13udm27828-p13udm27831) Units=km Length=0.00986471 bus1=p13udm27828.1.2 bus2=p13udm27831.1.2 switch=n enabled=y phases=2 Linecode=1P_UG_AL_1/0_Brenau_2

New Line.l(r:p13udm27828-p13udt6460lv) Units=km Length=0.00985565 bus1=p13udt6460lv.1.2 bus2=p13udm27828.1.2 switch=n enabled=y phases=2 Linecode=1P_UG_AL_4/0_Sweetbriar_2

New Line.l(r:p13udm27832-p13ulv92240) Units=km Length=0.0130008 bus1=p13udm27832.1.2 bus2=p13ulv92240.1.2 switch=n enabled=y phases=2 Linecode=1P_UG_AL_1/0_Brenau_2

New Line.l(r:p13udm27832-p13ulv92258) Units=km Length=0.013147300000000002 bus1=p13udm27832.1.2 bus2=p13ulv92258.1.2 switch=n enabled=y phases=2 Linecode=1P_UG_AL_1/0_Brenau_2

New Line.l(r:p13udm27832-p13udt6460lv) Units=km Length=0.00985565 bus1=p13udt6460lv.1.2 bus2=p13udm27832.1.2 switch=n enabled=y phases=2 Linecode=1P_UG_AL_4/0_Sweetbriar_2

New Line.l(r:p13udt6461lv-p13ulv17647) Units=km Length=0.0137807 bus1=p13udt6461lv.1.2 bus2=p13ulv17647.1.2 switch=n enabled=y phases=2 Linecode=1P_UG_AL_1/0_Brenau_2

New Line.l(r:p13udt6461lv-p13ulv90335) Units=km Length=0.0130983 bus1=p13udt6461lv.1.2 bus2=p13ulv90335.1.2 switch=n enabled=y phases=2 Linecode=1P_UG_AL_1/0_Brenau_2

New Line.l(r:p13udm27836-p13ulv14379) Units=km Length=0.0416039 bus1=p13udm27836.1.2 bus2=p13ulv14379.1.2 switch=n enabled=y phases=2 Linecode=1P_UG_AL_1/0_Brenau_2

New Line.l(r:p13udm27835-p13ulv14378) Units=km Length=0.0342274 bus1=p13udm27835.1.2 bus2=p13ulv14378.1.2 switch=n enabled=y phases=2 Linecode=1P_UG_AL_1/0_Brenau_2

New Line.l(r:p13udm27835-p13udm27836) Units=km Length=0.00985142 bus1=p13udm27836.1.2 bus2=p13udm27835.1.2 switch=n enabled=y phases=2 Linecode=1P_UG_AL_1/0_Brenau_2

New Line.l(r:p13udm27836-p13udt6461lv) Units=km Length=0.00950224 bus1=p13udt6461lv.1.2 bus2=p13udm27836.1.2 switch=n enabled=y phases=2 Linecode=1P_UG_AL_1/0_Brenau_2

New Line.l(r:p13udm27837-p13ulv14381) Units=km Length=0.0126071 bus1=p13udm27837.1.2 bus2=p13ulv14381.1.2 switch=n enabled=y phases=2 Linecode=1P_UG_AL_1/0_Brenau_2

New Line.l(r:p13udm27837-p13ulv17646) Units=km Length=0.0119881 bus1=p13udm27837.1.2 bus2=p13ulv17646.1.2 switch=n enabled=y phases=2 Linecode=1P_UG_AL_1/0_Brenau_2

New Line.l(r:p13udm27837-p13udt6461lv) Units=km Length=0.00950224 bus1=p13udt6461lv.1.2 bus2=p13udm27837.1.2 switch=n enabled=y phases=2 Linecode=1P_UG_AL_1/0_Brenau_2

New Line.l(r:p13udt6462lv-p13ulv14380) Units=km Length=0.0413793 bus1=p13udt6462lv.1.2 bus2=p13ulv14380.1.2 switch=n enabled=y phases=2 Linecode=1P_UG_AL_1/0_Brenau_2

New Line.l(r:p13udt6462lv-p13ulv14382) Units=km Length=0.012644 bus1=p13udt6462lv.1.2 bus2=p13ulv14382.1.2 switch=n enabled=y phases=2 Linecode=1P_UG_AL_1/0_Brenau_2

New Line.l(r:p13udt6462lv-p13ulv17645) Units=km Length=0.0134949 bus1=p13udt6462lv.1.2 bus2=p13ulv17645.1.2 switch=n enabled=y phases=2 Linecode=1P_UG_AL_1/0_Brenau_2

New Line.l(r:p13udm27843-p13ulv14383) Units=km Length=0.0118588 bus1=p13udm27843.1.2 bus2=p13ulv14383.1.2 switch=n enabled=y phases=2 Linecode=1P_UG_AL_1/0_Brenau_2

New Line.l(r:p13udm27843-p13ulv90347) Units=km Length=0.0136193 bus1=p13udm27843.1.2 bus2=p13ulv90347.1.2 switch=n enabled=y phases=2 Linecode=1P_UG_AL_1/0_Brenau_2

New Line.l(r:p13udm27843-p13udt6462lv) Units=km Length=0.00948895 bus1=p13udt6462lv.1.2 bus2=p13udm27843.1.2 switch=n enabled=y phases=2 Linecode=1P_UG_AL_2/0_Converse_2

New Line.l(r:p13udt6463lv-p13ulv14385) Units=km Length=0.012699800000000002 bus1=p13udt6463lv.1.2 bus2=p13ulv14385.1.2 switch=n enabled=y phases=2 Linecode=1P_UG_AL_2/0_Converse_2

New Line.l(r:p13udm27849-p13ulv90379) Units=km Length=0.0121552 bus1=p13udm27849.1.2 bus2=p13ulv90379.1.2 switch=n enabled=y phases=2 Linecode=1P_UG_AL_1/0_Brenau_2

New Line.l(r:p13udm27846-p13ulv14384) Units=km Length=0.00993363 bus1=p13udm27846.1.2 bus2=p13ulv14384.1.2 switch=n enabled=y phases=2 Linecode=1P_UG_AL_1/0_Brenau_2

New Line.l(r:p13udm27846-p13ulv90358) Units=km Length=0.014003 bus1=p13udm27846.1.2 bus2=p13ulv90358.1.2 switch=n enabled=y phases=2 Linecode=1P_UG_AL_1/0_Brenau_2

New Line.l(r:p13udm27846-p13udm27849) Units=km Length=0.00950224 bus1=p13udm27849.1.2 bus2=p13udm27846.1.2 switch=n enabled=y phases=2 Linecode=1P_UG_AL_2/0_Converse_2

New Line.l(r:p13udm27849-p13udt6463lv) Units=km Length=0.00950224 bus1=p13udt6463lv.1.2 bus2=p13udm27849.1.2 switch=n enabled=y phases=2 Linecode=1P_UG_AL_4/0_Sweetbriar_2

New Line.l(r:p13udm27850-p13ulv90421) Units=km Length=0.0364782 bus1=p13udm27850.1.2 bus2=p13ulv90421.1.2 switch=n enabled=y phases=2 Linecode=1P_UG_AL_1/0_Brenau_2

New Line.l(r:p13udm27850-p13udt6463lv) Units=km Length=0.027026 bus1=p13udt6463lv.1.2 bus2=p13udm27850.1.2 switch=n enabled=y phases=2 Linecode=1P_UG_AL_1/0_Brenau_2

New Line.l(r:p13udt6464lv-p13ulv14386) Units=km Length=0.00706601 bus1=p13udt6464lv.1.2 bus2=p13ulv14386.1.2 switch=n enabled=y phases=2 Linecode=1P_UG_AL_4/0_Sweetbriar_2

New Line.l(r:p13udt6464lv-p13ulv17642) Units=km Length=0.0136068 bus1=p13udt6464lv.1.2 bus2=p13ulv17642.1.2 switch=n enabled=y phases=2 Linecode=1P_UG_AL_1/0_Brenau_2

New Line.l(r:p13udm27852-p13ulv17641) Units=km Length=0.0146061 bus1=p13udm27852.1.2 bus2=p13ulv17641.1.2 switch=n enabled=y phases=2 Linecode=1P_UG_AL_4/0_Sweetbriar_2

New Line.l(r:p13udm27852-p13udt6464lv) Units=km Length=0.0175238 bus1=p13udt6464lv.1.2 bus2=p13udm27852.1.2 switch=n enabled=y phases=2 Linecode=1P_UG_AL_4/0_Sweetbriar_2

New Line.l(r:p13udm27854-p13ulv90365) Units=km Length=0.0140097 bus1=p13udm27854.1.2 bus2=p13ulv90365.1.2 switch=n enabled=y phases=2 Linecode=1P_UG_AL_1/0_Brenau_2

New Line.l(r:p13udm27854-p13udt6464lv) Units=km Length=0.00950224 bus1=p13udt6464lv.1.2 bus2=p13udm27854.1.2 switch=n enabled=y phases=2 Linecode=1P_UG_AL_1/0_Brenau_2

New Line.l(r:p13udt6466lv-p13ulv17639) Units=km Length=0.0124704 bus1=p13udt6466lv.1.2 bus2=p13ulv17639.1.2 switch=n enabled=y phases=2 Linecode=1P_UG_AL_1/0_Brenau_2

New Line.l(r:p13udm27856-p13ulv14388) Units=km Length=0.0082062 bus1=p13udm27856.1.2 bus2=p13ulv14388.1.2 switch=n enabled=y phases=2 Linecode=1P_UG_AL_4/0_Sweetbriar_2

New Line.l(r:p13udm27859-p13ulv90429) Units=km Length=0.0125877 bus1=p13udm27859.1.2 bus2=p13ulv90429.1.2 switch=n enabled=y phases=2 Linecode=1P_UG_AL_1/0_Brenau_2

New Line.l(r:p13udm27856-p13udm27859) Units=km Length=0.00873856 bus1=p13udm27856.1.2 bus2=p13udm27859.1.2 switch=n enabled=y phases=2 Linecode=1P_UG_AL_1/0_Brenau_2

New Line.l(r:p13udm27856-p13udt6466lv) Units=km Length=0.00872993 bus1=p13udt6466lv.1.2 bus2=p13udm27856.1.2 switch=n enabled=y phases=2 Linecode=1P_UG_AL_4/0_Sweetbriar_2

New Line.l(r:p13udm27858-p13ulv17640) Units=km Length=0.0131532 bus1=p13udm27858.1.2 bus2=p13ulv17640.1.2 switch=n enabled=y phases=2 Linecode=1P_UG_AL_1/0_Brenau_2

New Line.l(r:p13udm27858-p13udt6466lv) Units=km Length=0.00873497 bus1=p13udt6466lv.1.2 bus2=p13udm27858.1.2 switch=n enabled=y phases=2 Linecode=1P_UG_AL_1/0_Brenau_2

New Line.l(r:p13udt6467lv-p13ulv14389) Units=km Length=0.014535000000000001 bus1=p13udt6467lv.1.2 bus2=p13ulv14389.1.2 switch=n enabled=y phases=2 Linecode=1P_UG_AL_1/0_Brenau_2

New Line.l(r:p13udt6467lv-p13ulv90445) Units=km Length=0.0123713 bus1=p13udt6467lv.1.2 bus2=p13ulv90445.1.2 switch=n enabled=y phases=2 Linecode=1P_UG_AL_1/0_Brenau_2

New Line.l(r:p13udm27861-p13ulv90423) Units=km Length=0.0366175 bus1=p13udm27861.1.2 bus2=p13ulv90423.1.2 switch=n enabled=y phases=2 Linecode=1P_UG_AL_1/0_Brenau_2

New Line.l(r:p13udm27861-p13udt6467lv) Units=km Length=0.00873497 bus1=p13udt6467lv.1.2 bus2=p13udm27861.1.2 switch=n enabled=y phases=2 Linecode=1P_UG_AL_1/0_Brenau_2

New Line.l(r:p13udm27863-p13ulv90454) Units=km Length=0.00844846 bus1=p13udm27863.1.2 bus2=p13ulv90454.1.2 switch=n enabled=y phases=2 Linecode=1P_UG_AL_1/0_Brenau_2

New Line.l(r:p13udm27864-p13ulv90471) Units=km Length=0.0129457 bus1=p13udm27864.1.2 bus2=p13ulv90471.1.2 switch=n enabled=y phases=2 Linecode=1P_UG_AL_1/0_Brenau_2

New Line.l(r:p13udm27863-p13udm27864) Units=km Length=0.00975207 bus1=p13udm27863.1.2 bus2=p13udm27864.1.2 switch=n enabled=y phases=2 Linecode=1P_UG_AL_1/0_Brenau_2

New Line.l(r:p13udm27863-p13udt6467lv) Units=km Length=0.00872993 bus1=p13udt6467lv.1.2 bus2=p13udm27863.1.2 switch=n enabled=y phases=2 Linecode=1P_UG_AL_4/0_Sweetbriar_2

New Line.l(r:p13udt6468lv-p13ulv14398) Units=km Length=0.00754221 bus1=p13udt6468lv.1.2 bus2=p13ulv14398.1.2 switch=n enabled=y phases=2 Linecode=1P_UG_AL_1/0_Brenau_2

New Line.l(r:p13udm27866-p13ulv14399) Units=km Length=0.00615231 bus1=p13udm27866.1.2 bus2=p13ulv14399.1.2 switch=n enabled=y phases=2 Linecode=1P_UG_AL_1/0_Brenau_2

New Line.l(r:p13udm27867-p13ulv92165) Units=km Length=0.0081701 bus1=p13udm27867.1.2 bus2=p13ulv92165.1.2 switch=n enabled=y phases=2 Linecode=1P_UG_AL_1/0_Brenau_2

New Line.l(r:p13udm27866-p13udm27867) Units=km Length=0.00920529 bus1=p13udm27866.1.2 bus2=p13udm27867.1.2 switch=n enabled=y phases=2 Linecode=1P_UG_AL_1/0_Brenau_2

New Line.l(r:p13udm27866-p13udt6468lv) Units=km Length=0.00919944 bus1=p13udt6468lv.1.2 bus2=p13udm27866.1.2 switch=n enabled=y phases=2 Linecode=1P_UG_AL_1/0_Brenau_2

New Line.l(r:p13udm27868-p13ulv92182) Units=km Length=0.012845 bus1=p13udm27868.1.2 bus2=p13ulv92182.1.2 switch=n enabled=y phases=2 Linecode=1P_UG_AL_1/0_Brenau_2

New Line.l(r:p13udm27869-p13ulv92205) Units=km Length=0.0112057 bus1=p13udm27869.1.2 bus2=p13ulv92205.1.2 switch=n enabled=y phases=2 Linecode=1P_UG_AL_1/0_Brenau_2

New Line.l(r:p13udm27868-p13udm27869) Units=km Length=0.016950600000000003 bus1=p13udm27868.1.2 bus2=p13udm27869.1.2 switch=n enabled=y phases=2 Linecode=1P_UG_AL_1/0_Brenau_2

New Line.l(r:p13udm27868-p13udt6468lv) Units=km Length=0.0073736 bus1=p13udt6468lv.1.2 bus2=p13udm27868.1.2 switch=n enabled=y phases=2 Linecode=1P_UG_AL_2/0_Converse_2

New Line.l(r:p13udt6616lv-p13ulv14657) Units=km Length=0.007447310000000001 bus1=p13udt6616lv.1.2 bus2=p13ulv14657.1.2 switch=n enabled=y phases=2 Linecode=1P_OH_AL_2/0_Rucina_2

New Line.l(r:p13udt7835lv-p13ulv17012) Units=km Length=0.0188994 bus1=p13udt7835lv.1.2 bus2=p13ulv17012.1.2 switch=n enabled=y phases=2 Linecode=1P_OH_AL_2/0_Rucina_2

New Line.l(r:p13udt7835lv-p13ulv17037) Units=km Length=0.016175700000000005 bus1=p13udt7835lv.1.2 bus2=p13ulv17037.1.2 switch=n enabled=y phases=2 Linecode=1P_OH_AL_2/0_Rucina_2

New Line.l(r:p13udm33608-p13ulv17036) Units=km Length=0.015939 bus1=p13udm33608.1.2 bus2=p13ulv17036.1.2 switch=n enabled=y phases=2 Linecode=1P_OH_AL_2/0_Rucina_2

New Line.l(r:p13udm33608-p13udt7835lv) Units=km Length=0.0188343 bus1=p13udt7835lv.1.2 bus2=p13udm33608.1.2 switch=n enabled=y phases=2 Linecode=1P_OH_AL_2/0_Rucina_2

New Line.l(r:p13udm33610-p13ulv93908) Units=km Length=0.0164502 bus1=p13udm33610.1.2 bus2=p13ulv93908.1.2 switch=n enabled=y phases=2 Linecode=1P_OH_AL_2/0_Rucina_2

New Line.l(r:p13udm33610-p13udt7835lv) Units=km Length=0.0188206 bus1=p13udt7835lv.1.2 bus2=p13udm33610.1.2 switch=n enabled=y phases=2 Linecode=1P_OH_AL_2/0_Rucina_2

New Line.l(r:p13udt7837lv-p13ulv17015) Units=km Length=0.013854 bus1=p13udt7837lv.1.2 bus2=p13ulv17015.1.2 switch=n enabled=y phases=2 Linecode=1P_OH_AL_2/0_Rucina_2

New Line.l(r:p13udt7837lv-p13ulv93916) Units=km Length=0.0164634 bus1=p13udt7837lv.1.2 bus2=p13ulv93916.1.2 switch=n enabled=y phases=2 Linecode=1P_OH_AL_2/0_Rucina_2

New Line.l(r:p13udm33614-p13ulv93919) Units=km Length=0.0111519 bus1=p13udm33614.1.2 bus2=p13ulv93919.1.2 switch=n enabled=y phases=2 Linecode=1P_UG_AL_1/0_Brenau_2

New Line.l(r:p13udm33614-p13udt7837lv) Units=km Length=0.047157 bus1=p13udt7837lv.1.2 bus2=p13udm33614.1.2 switch=n enabled=y phases=2 Linecode=1P_OH_AL_4/0_Zuzara_2

New Line.l(r:p13udt7838lv-p13ulv17016) Units=km Length=0.0171619 bus1=p13udt7838lv.1.2 bus2=p13ulv17016.1.2 switch=n enabled=y phases=2 Linecode=1P_OH_AL_2/0_Rucina_2

New Line.l(r:p13udt7838lv-p13ulv93933) Units=km Length=0.015859 bus1=p13udt7838lv.1.2 bus2=p13ulv93933.1.2 switch=n enabled=y phases=2 Linecode=1P_OH_AL_2/0_Rucina_2

New Line.l(r:p13udm33616-p13ulv93912) Units=km Length=0.0171549 bus1=p13udm33616.1.2 bus2=p13ulv93912.1.2 switch=n enabled=y phases=2 Linecode=1P_OH_AL_2/0_Rucina_2

New Line.l(r:p13udm33616-p13ulv93928) Units=km Length=0.0159516 bus1=p13udm33616.1.2 bus2=p13ulv93928.1.2 switch=n enabled=y phases=2 Linecode=1P_OH_AL_2/0_Rucina_2

New Line.l(r:p13udm33616-p13udt7838lv) Units=km Length=0.0186543 bus1=p13udt7838lv.1.2 bus2=p13udm33616.1.2 switch=n enabled=y phases=2 Linecode=1P_OH_AL_2/0_Rucina_2

New Line.l(r:p13udm33620-p13ulv17019) Units=km Length=0.0092637 bus1=p13udm33620.1.2 bus2=p13ulv17019.1.2 switch=n enabled=y phases=2 Linecode=1P_OH_AL_2/0_Rucina_2

New Line.l(r:p13udm33619-p13ulv17018) Units=km Length=0.00984005 bus1=p13udm33619.1.2 bus2=p13ulv17018.1.2 switch=n enabled=y phases=2 Linecode=1P_OH_AL_2/0_Rucina_2

New Line.l(r:p13udm33619-p13udm33620) Units=km Length=0.0180814 bus1=p13udm33620.1.2 bus2=p13udm33619.1.2 switch=n enabled=y phases=2 Linecode=1P_OH_AL_2/0_Rucina_2

New Line.l(r:p13udm33620-p13udt7839lv) Units=km Length=0.0153494 bus1=p13udt7839lv.1.2 bus2=p13udm33620.1.2 switch=n enabled=y phases=2 Linecode=1P_OH_AL_2/0_Rucina_2

New Line.l(r:p13udm33621-p13ulv17022) Units=km Length=0.00952036 bus1=p13udm33621.1.2 bus2=p13ulv17022.1.2 switch=n enabled=y phases=2 Linecode=1P_OH_AL_2/0_Rucina_2

New Line.l(r:p13udm33621-p13udt7839lv) Units=km Length=0.0226125 bus1=p13udt7839lv.1.2 bus2=p13udm33621.1.2 switch=n enabled=y phases=2 Linecode=1P_OH_AL_2/0_Rucina_2

New Line.l(r:p13udm33622-p13ulv17023) Units=km Length=0.017054800000000002 bus1=p13udm33622.1.2 bus2=p13ulv17023.1.2 switch=n enabled=y phases=2 Linecode=1P_OH_AL_2/0_Rucina_2

New Line.l(r:p13udm33622-p13udt7839lv) Units=km Length=0.061346 bus1=p13udt7839lv.1.2 bus2=p13udm33622.1.2 switch=n enabled=y phases=2 Linecode=1P_OH_AL_4/0_Zuzara_2

New Line.l(r:p13udt7840lv-p13ulv17020) Units=km Length=0.0103935 bus1=p13udt7840lv.1.2 bus2=p13ulv17020.1.2 switch=n enabled=y phases=2 Linecode=1P_UG_AL_1/0_Brenau_2

New Line.l(r:p13udt7840lv-p13ulv17021) Units=km Length=0.007177780000000001 bus1=p13udt7840lv.1.2 bus2=p13ulv17021.1.2 switch=n enabled=y phases=2 Linecode=1P_UG_AL_4/0_Sweetbriar_2

New Line.l(r:p13udt7841lv-p13ulv17024) Units=km Length=0.0168027 bus1=p13udt7841lv.1.2 bus2=p13ulv17024.1.2 switch=n enabled=y phases=2 Linecode=1P_OH_AL_2/0_Rucina_2

New Line.l(r:p13udt7841lv-p13ulv17046) Units=km Length=0.0286336 bus1=p13udt7841lv.1.2 bus2=p13ulv17046.1.2 switch=n enabled=y phases=2 Linecode=1P_OH_AL_4/0_Zuzara_2

New Line.l(r:p13udt7841lv-p13ulv93945) Units=km Length=0.0150476 bus1=p13udt7841lv.1.2 bus2=p13ulv93945.1.2 switch=n enabled=y phases=2 Linecode=1P_OH_AL_2/0_Rucina_2

New Line.l(r:p13udm33627-p13ulv17047) Units=km Length=0.020657900000000003 bus1=p13udm33627.1.2 bus2=p13ulv17047.1.2 switch=n enabled=y phases=2 Linecode=1P_UG_AL_1/0_Brenau_2

New Line.l(r:p13udm33627-p13ulv17048) Units=km Length=0.0315157 bus1=p13udm33627.1.2 bus2=p13ulv17048.1.2 switch=n enabled=y phases=2 Linecode=1P_UG_AL_1/0_Brenau_2

New Line.l(r:p13udm33627-p13udt7841lv) Units=km Length=0.0841237 bus1=p13udt7841lv.1.2 bus2=p13udm33627.1.2 switch=n enabled=y phases=2 Linecode=1P_OH_AL_4/0_Zuzara_2

New Line.l(r:p13udm33629-p13ulv92103) Units=km Length=0.013423000000000001 bus1=p13udm33629.1.2 bus2=p13ulv92103.1.2 switch=n enabled=y phases=2 Linecode=1P_OH_AL_2/0_Rucina_2

New Line.l(r:p13udm33629-p13ulv93949) Units=km Length=0.0128304 bus1=p13udm33629.1.2 bus2=p13ulv93949.1.2 switch=n enabled=y phases=2 Linecode=1P_OH_AL_2/0_Rucina_2

New Line.l(r:p13udm33629-p13udt7841lv) Units=km Length=0.019104 bus1=p13udt7841lv.1.2 bus2=p13udm33629.1.2 switch=n enabled=y phases=2 Linecode=1P_OH_AL_2/0_Rucina_2

New Line.l(r:p13udt7845lv-p13ulv17034) Units=km Length=0.0150691 bus1=p13udt7845lv.1.2 bus2=p13ulv17034.1.2 switch=n enabled=y phases=2 Linecode=1P_UG_AL_1/0_Brenau_2

New Line.l(r:p13udt7845lv-p13ulv17038) Units=km Length=0.00844593 bus1=p13udt7845lv.1.2 bus2=p13ulv17038.1.2 switch=n enabled=y phases=2 Linecode=1P_UG_AL_1/0_Brenau_2

New Line.l(r:p13udt7845lv-p13ulv93930) Units=km Length=0.0106713 bus1=p13udt7845lv.1.2 bus2=p13ulv93930.1.2 switch=n enabled=y phases=2 Linecode=1P_UG_AL_2/0_Converse_2

New Line.l(r:p13udm33645-p13ulv17035) Units=km Length=0.015567400000000002 bus1=p13udm33645.1.2 bus2=p13ulv17035.1.2 switch=n enabled=y phases=2 Linecode=1P_UG_AL_1/0_Brenau_2

New Line.l(r:p13udm33645-p13ulv17039) Units=km Length=0.0101259 bus1=p13udm33645.1.2 bus2=p13ulv17039.1.2 switch=n enabled=y phases=2 Linecode=1P_UG_AL_1/0_Brenau_2

New Line.l(r:p13udm33648-p13ulv17040) Units=km Length=0.00701091 bus1=p13udm33648.1.2 bus2=p13ulv17040.1.2 switch=n enabled=y phases=2 Linecode=1P_UG_AL_1/0_Brenau_2

New Line.l(r:p13udm33645-p13udm33648) Units=km Length=0.018888 bus1=p13udm33645.1.2 bus2=p13udm33648.1.2 switch=n enabled=y phases=2 Linecode=1P_UG_AL_1/0_Brenau_2

New Line.l(r:p13udm33645-p13udt7845lv) Units=km Length=0.0094397 bus1=p13udt7845lv.1.2 bus2=p13udm33645.1.2 switch=n enabled=y phases=2 Linecode=1P_UG_AL_4/0_Sweetbriar_2

New Line.l(r:p13udm33650-p13ulv93936) Units=km Length=0.0146348 bus1=p13udm33650.1.2 bus2=p13ulv93936.1.2 switch=n enabled=y phases=2 Linecode=1P_UG_AL_1/0_Brenau_2

New Line.l(r:p13udm33651-p13ulv93947) Units=km Length=0.0373864 bus1=p13udm33651.1.2 bus2=p13ulv93947.1.2 switch=n enabled=y phases=2 Linecode=1P_UG_AL_1/0_Brenau_2

New Line.l(r:p13udm33650-p13udm33651) Units=km Length=0.0094397 bus1=p13udm33650.1.2 bus2=p13udm33651.1.2 switch=n enabled=y phases=2 Linecode=1P_UG_AL_1/0_Brenau_2

New Line.l(r:p13udm33650-p13udt7845lv) Units=km Length=0.009448330000000001 bus1=p13udt7845lv.1.2 bus2=p13udm33650.1.2 switch=n enabled=y phases=2 Linecode=1P_UG_AL_1/0_Brenau_2

New Line.l(r:p13udt7846lv-p13ulv17041) Units=km Length=0.0158556 bus1=p13udt7846lv.1.2 bus2=p13ulv17041.1.2 switch=n enabled=y phases=2 Linecode=1P_OH_AL_2/0_Rucina_2

New Line.l(r:p13udt7846lv-p13ulv93911) Units=km Length=0.0166989 bus1=p13udt7846lv.1.2 bus2=p13ulv93911.1.2 switch=n enabled=y phases=2 Linecode=1P_OH_AL_2/0_Rucina_2

New Line.l(r:p13udt7847lv-p13ulv17042) Units=km Length=0.0156882 bus1=p13udt7847lv.1.2 bus2=p13ulv17042.1.2 switch=n enabled=y phases=2 Linecode=1P_OH_AL_2/0_Rucina_2

New Line.l(r:p13udm33656-p13ulv93941) Units=km Length=0.0068983000000000004 bus1=p13udm33656.1.2 bus2=p13ulv93941.1.2 switch=n enabled=y phases=2 Linecode=1P_UG_AL_1/0_Brenau_2

New Line.l(r:p13udm33655-p13ulv17043) Units=km Length=0.00919904 bus1=p13udm33655.1.2 bus2=p13ulv17043.1.2 switch=n enabled=y phases=2 Linecode=1P_UG_AL_1/0_Brenau_2

New Line.l(r:p13udm33655-p13udm33656) Units=km Length=0.00917868 bus1=p13udm33656.1.2 bus2=p13udm33655.1.2 switch=n enabled=y phases=2 Linecode=1P_UG_AL_1/0_Brenau_2

New Line.l(r:p13udm33656-p13udt7848lv) Units=km Length=0.00918728 bus1=p13udt7848lv.1.2 bus2=p13udm33656.1.2 switch=n enabled=y phases=2 Linecode=1P_UG_AL_4/0_Sweetbriar_2

New Line.l(r:p13udm33657-p13ulv93942) Units=km Length=0.009812980000000002 bus1=p13udm33657.1.2 bus2=p13ulv93942.1.2 switch=n enabled=y phases=2 Linecode=1P_UG_AL_1/0_Brenau_2

New Line.l(r:p13udm33658-p13ulv93960) Units=km Length=0.0111329 bus1=p13udm33658.1.2 bus2=p13ulv93960.1.2 switch=n enabled=y phases=2 Linecode=1P_UG_AL_1/0_Brenau_2

New Line.l(r:p13udm33657-p13udm33658) Units=km Length=0.018366 bus1=p13udm33657.1.2 bus2=p13udm33658.1.2 switch=n enabled=y phases=2 Linecode=1P_UG_AL_1/0_Brenau_2

New Line.l(r:p13udm33657-p13udt7848lv) Units=km Length=0.00919239 bus1=p13udt7848lv.1.2 bus2=p13udm33657.1.2 switch=n enabled=y phases=2 Linecode=1P_UG_AL_1/0_Brenau_2

New Line.l(r:p13udt7849lv-p13ulv17044) Units=km Length=0.0174874 bus1=p13udt7849lv.1.2 bus2=p13ulv17044.1.2 switch=n enabled=y phases=2 Linecode=1P_UG_AL_1/0_Brenau_2

New Line.l(r:p13udm33660-p13ulv17045) Units=km Length=0.0168938 bus1=p13udm33660.1.2 bus2=p13ulv17045.1.2 switch=n enabled=y phases=2 Linecode=1P_UG_AL_1/0_Brenau_2

New Line.l(r:p13udm33660-p13udt7849lv) Units=km Length=0.00917868 bus1=p13udt7849lv.1.2 bus2=p13udm33660.1.2 switch=n enabled=y phases=2 Linecode=1P_UG_AL_1/0_Brenau_2

New Line.l(r:p13udt7850lv-p13ulv17050) Units=km Length=0.0133381 bus1=p13udt7850lv.1.2 bus2=p13ulv17050.1.2 switch=n enabled=y phases=2 Linecode=1P_UG_AL_1/0_Brenau_2

New Line.l(r:p13udt7850lv-p13ulv93961) Units=km Length=0.0167524 bus1=p13udt7850lv.1.2 bus2=p13ulv93961.1.2 switch=n enabled=y phases=2 Linecode=1P_UG_AL_1/0_Brenau_2

New Line.l(r:p13udm33661-p13ulv17049) Units=km Length=0.0105423 bus1=p13udm33661.1.2 bus2=p13ulv17049.1.2 switch=n enabled=y phases=2 Linecode=1P_UG_AL_1/0_Brenau_2

New Line.l(r:p13udm33665-p13ulv93966) Units=km Length=0.0106323 bus1=p13udm33665.1.2 bus2=p13ulv93966.1.2 switch=n enabled=y phases=2 Linecode=1P_UG_AL_1/0_Brenau_2

New Line.l(r:p13udm33661-p13udm33665) Units=km Length=0.00918728 bus1=p13udm33661.1.2 bus2=p13udm33665.1.2 switch=n enabled=y phases=2 Linecode=1P_UG_AL_1/0_Brenau_2

New Line.l(r:p13udm33661-p13udt7850lv) Units=km Length=0.00917868 bus1=p13udt7850lv.1.2 bus2=p13udm33661.1.2 switch=n enabled=y phases=2 Linecode=1P_UG_AL_1/0_Brenau_2

New Line.l(r:p13udm33663-p13ulv17051) Units=km Length=0.0126627 bus1=p13udm33663.1.2 bus2=p13ulv17051.1.2 switch=n enabled=y phases=2 Linecode=1P_UG_AL_1/0_Brenau_2

New Line.l(r:p13udm33663-p13udt7850lv) Units=km Length=0.00918728 bus1=p13udt7850lv.1.2 bus2=p13udm33663.1.2 switch=n enabled=y phases=2 Linecode=1P_UG_AL_1/0_Brenau_2

New Line.l(r:p13udt7853lv-p13ulv17055) Units=km Length=0.00709372 bus1=p13udt7853lv.1.2 bus2=p13ulv17055.1.2 switch=n enabled=y phases=2 Linecode=1P_UG_AL_1/0_Brenau_2

New Line.l(r:p13udm33668-p13ulv17054) Units=km Length=0.00755656 bus1=p13udm33668.1.2 bus2=p13ulv17054.1.2 switch=n enabled=y phases=2 Linecode=1P_UG_AL_1/0_Brenau_2

New Line.l(r:p13udm33668-p13udt7853lv) Units=km Length=0.00977168 bus1=p13udt7853lv.1.2 bus2=p13udm33668.1.2 switch=n enabled=y phases=2 Linecode=1P_UG_AL_1/0_Brenau_2

New Line.l(r:p13udm33670-p13ulv92059) Units=km Length=0.00773692 bus1=p13udm33670.1.2 bus2=p13ulv92059.1.2 switch=n enabled=y phases=2 Linecode=1P_UG_AL_1/0_Brenau_2

New Line.l(r:p13udm33670-p13udt7853lv) Units=km Length=0.00977548 bus1=p13udt7853lv.1.2 bus2=p13udm33670.1.2 switch=n enabled=y phases=2 Linecode=1P_UG_AL_1/0_Brenau_2

New Line.l(r:p13udt7854lv-p13ulv17060) Units=km Length=0.0180996 bus1=p13udt7854lv.1.2 bus2=p13ulv17060.1.2 switch=n enabled=y phases=2 Linecode=1P_UG_AL_4/0_Sweetbriar_2

New Line.l(r:p13udm33671-p13ulv17056) Units=km Length=0.00681596 bus1=p13udm33671.1.2 bus2=p13ulv17056.1.2 switch=n enabled=y phases=2 Linecode=1P_UG_AL_1/0_Brenau_2

New Line.l(r:p13udm33671-p13udt7854lv) Units=km Length=0.009205440000000002 bus1=p13udt7854lv.1.2 bus2=p13udm33671.1.2 switch=n enabled=y phases=2 Linecode=1P_UG_AL_1/0_Brenau_2

New Line.l(r:p13udm33672-p13ulv17059) Units=km Length=0.0348071 bus1=p13udm33672.1.2 bus2=p13ulv17059.1.2 switch=n enabled=y phases=2 Linecode=1P_UG_AL_1/0_Brenau_2

New Line.l(r:p13udm33674-p13ulv17061) Units=km Length=0.007223030000000001 bus1=p13udm33674.1.2 bus2=p13ulv17061.1.2 switch=n enabled=y phases=2 Linecode=1P_UG_AL_1/0_Brenau_2

New Line.l(r:p13udm33672-p13udm33674) Units=km Length=0.00920164 bus1=p13udm33672.1.2 bus2=p13udm33674.1.2 switch=n enabled=y phases=2 Linecode=1P_UG_AL_1/0_Brenau_2

New Line.l(r:p13udm33672-p13udt7854lv) Units=km Length=0.00920164 bus1=p13udt7854lv.1.2 bus2=p13udm33672.1.2 switch=n enabled=y phases=2 Linecode=1P_UG_AL_1/0_Brenau_2

New Line.l(r:p13udt7855lv-p13ulv17057) Units=km Length=0.011556000000000002 bus1=p13udt7855lv.1.2 bus2=p13ulv17057.1.2 switch=n enabled=y phases=2 Linecode=1P_UG_AL_1/0_Brenau_2

New Line.l(r:p13udt7855lv-p13ulv92053) Units=km Length=0.00915105 bus1=p13udt7855lv.1.2 bus2=p13ulv92053.1.2 switch=n enabled=y phases=2 Linecode=1P_UG_AL_1/0_Brenau_2

New Line.l(r:p13udm33676-p13ulv17058) Units=km Length=0.00956791 bus1=p13udm33676.1.2 bus2=p13ulv17058.1.2 switch=n enabled=y phases=2 Linecode=1P_UG_AL_1/0_Brenau_2

New Line.l(r:p13udm33676-p13udt7855lv) Units=km Length=0.00863924 bus1=p13udt7855lv.1.2 bus2=p13udm33676.1.2 switch=n enabled=y phases=2 Linecode=1P_UG_AL_1/0_Brenau_2

New Line.l(r:p13udt7857lv-p13ulv17064) Units=km Length=0.012820100000000001 bus1=p13udt7857lv.1.2 bus2=p13ulv17064.1.2 switch=n enabled=y phases=2 Linecode=1P_UG_AL_1/0_Brenau_2

New Line.l(r:p13udm33679-p13ulv17063) Units=km Length=0.0110973 bus1=p13udm33679.1.2 bus2=p13ulv17063.1.2 switch=n enabled=y phases=2 Linecode=1P_UG_AL_1/0_Brenau_2

New Line.l(r:p13udm33685-p13ulv93974) Units=km Length=0.00884773 bus1=p13udm33685.1.2 bus2=p13ulv93974.1.2 switch=n enabled=y phases=2 Linecode=1P_UG_AL_1/0_Brenau_2

New Line.l(r:p13udm33684-p13ulv93971) Units=km Length=0.007273680000000001 bus1=p13udm33684.1.2 bus2=p13ulv93971.1.2 switch=n enabled=y phases=2 Linecode=1P_UG_AL_1/0_Brenau_2

New Line.l(r:p13udm33684-p13udm33685) Units=km Length=0.0376244 bus1=p13udm33685.1.2 bus2=p13udm33684.1.2 switch=n enabled=y phases=2 Linecode=1P_UG_AL_1/0_Brenau_2

New Line.l(r:p13udm33679-p13udm33685) Units=km Length=0.0385173 bus1=p13udm33679.1.2 bus2=p13udm33685.1.2 switch=n enabled=y phases=2 Linecode=1P_UG_AL_2/0_Converse_2

New Line.l(r:p13udm33679-p13udt7857lv) Units=km Length=0.00971255 bus1=p13udt7857lv.1.2 bus2=p13udm33679.1.2 switch=n enabled=y phases=2 Linecode=1P_UG_AL_4/0_Sweetbriar_2

New Line.l(r:p13udm33681-p13ulv17067) Units=km Length=0.00933936 bus1=p13udm33681.1.2 bus2=p13ulv17067.1.2 switch=n enabled=y phases=2 Linecode=1P_UG_AL_1/0_Brenau_2

New Line.l(r:p13udm33681-p13ulv93969) Units=km Length=0.00925756 bus1=p13udm33681.1.2 bus2=p13ulv93969.1.2 switch=n enabled=y phases=2 Linecode=1P_UG_AL_2/0_Converse_2

New Line.l(r:p13udm33682-p13ulv17068) Units=km Length=0.0152644 bus1=p13udm33682.1.2 bus2=p13ulv17068.1.2 switch=n enabled=y phases=2 Linecode=1P_UG_AL_1/0_Brenau_2

New Line.l(r:p13udm33681-p13udm33682) Units=km Length=0.0194122 bus1=p13udm33681.1.2 bus2=p13udm33682.1.2 switch=n enabled=y phases=2 Linecode=1P_UG_AL_1/0_Brenau_2

New Line.l(r:p13udm33681-p13udt7857lv) Units=km Length=0.00970322 bus1=p13udt7857lv.1.2 bus2=p13udm33681.1.2 switch=n enabled=y phases=2 Linecode=1P_UG_AL_4/0_Sweetbriar_2

New Line.l(r:p13udt7890lv-p13ulv17125) Units=km Length=0.0107648 bus1=p13udt7890lv.1.2 bus2=p13ulv17125.1.2 switch=n enabled=y phases=2 Linecode=1P_OH_AL_2/0_Rucina_2

New Line.l(r:p13udm33757-p13ulv17115) Units=km Length=0.00961762 bus1=p13udm33757.1.2 bus2=p13ulv17115.1.2 switch=n enabled=y phases=2 Linecode=1P_OH_AL_2/0_Rucina_2

New Line.l(r:p13udm33757-p13udt7890lv) Units=km Length=0.0139347 bus1=p13udt7890lv.1.2 bus2=p13udm33757.1.2 switch=n enabled=y phases=2 Linecode=1P_OH_AL_2/0_Rucina_2

New Line.l(r:p13udm33758-p13ulv17124) Units=km Length=0.0113842 bus1=p13udm33758.1.2 bus2=p13ulv17124.1.2 switch=n enabled=y phases=2 Linecode=1P_OH_AL_2/0_Rucina_2

New Line.l(r:p13udm33758-p13udt7890lv) Units=km Length=0.0188085 bus1=p13udt7890lv.1.2 bus2=p13udm33758.1.2 switch=n enabled=y phases=2 Linecode=1P_OH_AL_2/0_Rucina_2

New Line.l(r:p13udt7891lv-p13ulv17117) Units=km Length=0.00960976 bus1=p13udt7891lv.1.2 bus2=p13ulv17117.1.2 switch=n enabled=y phases=2 Linecode=1P_OH_AL_2/0_Rucina_2

New Line.l(r:p13udt7894lv-p13ulv17121) Units=km Length=0.00881821 bus1=p13udt7894lv.1.2 bus2=p13ulv17121.1.2 switch=n enabled=y phases=2 Linecode=1P_UG_AL_4/0_Sweetbriar_2

New Line.l(r:p13udt7895lv-p13ulv17122) Units=km Length=0.0106942 bus1=p13udt7895lv.1.2 bus2=p13ulv17122.1.2 switch=n enabled=y phases=2 Linecode=1P_OH_AL_2/0_Rucina_2

New Line.l(r:p13udm33766-p13ulv17123) Units=km Length=0.0107342 bus1=p13udm33766.1.2 bus2=p13ulv17123.1.2 switch=n enabled=y phases=2 Linecode=1P_OH_AL_2/0_Rucina_2

New Line.l(r:p13udm33766-p13udt7895lv) Units=km Length=0.0187999 bus1=p13udt7895lv.1.2 bus2=p13udm33766.1.2 switch=n enabled=y phases=2 Linecode=1P_OH_AL_2/0_Rucina_2

New Line.l(r:p13udt7897lv-p13ulv17662) Units=km Length=0.0158336 bus1=p13udt7897lv.1.2 bus2=p13ulv17662.1.2 switch=n enabled=y phases=2 Linecode=1P_OH_AL_2/0_Rucina_2

New Line.l(r:p13udt7897lv-p13ulv17663) Units=km Length=0.0140544 bus1=p13udt7897lv.1.2 bus2=p13ulv17663.1.2 switch=n enabled=y phases=2 Linecode=1P_OH_AL_2/0_Rucina_2

New Line.l(r:p13udm33768-p13ulv17127) Units=km Length=0.00981872 bus1=p13udm33768.1.2 bus2=p13ulv17127.1.2 switch=n enabled=y phases=2 Linecode=1P_OH_AL_2/0_Rucina_2

New Line.l(r:p13udm33768-p13udt7897lv) Units=km Length=0.00815719 bus1=p13udt7897lv.1.2 bus2=p13udm33768.1.2 switch=n enabled=y phases=2 Linecode=1P_OH_AL_2/0_Rucina_2

New Line.l(r:p13udm33771-p13ulv90441) Units=km Length=0.039839 bus1=p13udm33771.1.2 bus2=p13ulv90441.1.2 switch=n enabled=y phases=2 Linecode=1P_OH_AL_4/0_Zuzara_2

New Line.l(r:p13udm33771-p13udt7897lv) Units=km Length=0.008080130000000001 bus1=p13udt7897lv.1.2 bus2=p13udm33771.1.2 switch=n enabled=y phases=2 Linecode=1P_OH_AL_2/0_Rucina_2

New Line.l(r:p13udt7918lv-p13ulv17165) Units=km Length=0.0138569 bus1=p13udt7918lv.1.2 bus2=p13ulv17165.1.2 switch=n enabled=y phases=2 Linecode=1P_UG_AL_1/0_Brenau_2

New Line.l(r:p13udt7918lv-p13ulv93824) Units=km Length=0.0197877 bus1=p13udt7918lv.1.2 bus2=p13ulv93824.1.2 switch=n enabled=y phases=2 Linecode=1P_UG_AL_1/0_Brenau_2

New Line.l(r:p13udm33822-p13ulv17167) Units=km Length=0.0138782 bus1=p13udm33822.1.2 bus2=p13ulv17167.1.2 switch=n enabled=y phases=2 Linecode=1P_UG_AL_4/0_Sweetbriar_2

New Line.l(r:p13udm33822-p13udt7919lv) Units=km Length=0.0452867 bus1=p13udt7919lv.1.2 bus2=p13udm33822.1.2 switch=n enabled=y phases=2 Linecode=1P_UG_AL_4/0_Sweetbriar_2

New Line.l(r:p13udm33823-p13ulv92096) Units=km Length=0.0125974 bus1=p13udm33823.1.2 bus2=p13ulv92096.1.2 switch=n enabled=y phases=2 Linecode=1P_UG_AL_1/0_Brenau_2

New Line.l(r:p13udm33823-p13ulv93808) Units=km Length=0.0316992 bus1=p13udm33823.1.2 bus2=p13ulv93808.1.2 switch=n enabled=y phases=2 Linecode=1P_UG_AL_1/0_Brenau_2

New Line.l(r:p13udm33823-p13udt7919lv) Units=km Length=0.0181529 bus1=p13udt7919lv.1.2 bus2=p13udm33823.1.2 switch=n enabled=y phases=2 Linecode=1P_UG_AL_1/0_Brenau_2

New Line.l(r:p13udt8009lv-p13ulv17344) Units=km Length=0.0550357 bus1=p13udt8009lv.1.2 bus2=p13ulv17344.1.2 switch=n enabled=y phases=2 Linecode=1P_UG_AL_1/0_Brenau_2

New Line.l(r:p13udt8009lv-p13ulv96641) Units=km Length=0.0133424 bus1=p13udt8009lv.1.2 bus2=p13ulv96641.1.2 switch=n enabled=y phases=2 Linecode=1P_UG_AL_1/0_Brenau_2

New Line.l(r:p13udm34147-p13ulv17354) Units=km Length=0.0138266 bus1=p13udm34147.1.2 bus2=p13ulv17354.1.2 switch=n enabled=y phases=2 Linecode=1P_UG_AL_1/0_Brenau_2

New Line.l(r:p13udm34147-p13ulv96586) Units=km Length=0.0119447 bus1=p13udm34147.1.2 bus2=p13ulv96586.1.2 switch=n enabled=y phases=2 Linecode=1P_UG_AL_1/0_Brenau_2

New Line.l(r:p13udm34147-p13udt8009lv) Units=km Length=0.0197761 bus1=p13udt8009lv.1.2 bus2=p13udm34147.1.2 switch=n enabled=y phases=2 Linecode=1P_UG_AL_1/0_Brenau_2

New Line.l(r:p13udm34152-p13ulv96654) Units=km Length=0.0121313 bus1=p13udm34152.1.2 bus2=p13ulv96654.1.2 switch=n enabled=y phases=2 Linecode=1P_UG_AL_1/0_Brenau_2

New Line.l(r:p13udm34148-p13ulv17355) Units=km Length=0.0125718 bus1=p13udm34148.1.2 bus2=p13ulv17355.1.2 switch=n enabled=y phases=2 Linecode=1P_UG_AL_1/0_Brenau_2

New Line.l(r:p13udm34148-p13udm34152) Units=km Length=0.00950084 bus1=p13udm34152.1.2 bus2=p13udm34148.1.2 switch=n enabled=y phases=2 Linecode=1P_UG_AL_1/0_Brenau_2

New Line.l(r:p13udm34152-p13udt8009lv) Units=km Length=0.00950084 bus1=p13udt8009lv.1.2 bus2=p13udm34152.1.2 switch=n enabled=y phases=2 Linecode=1P_UG_AL_1/0_Brenau_2

New Line.l(r:p13udm34155-p13ulv98737) Units=km Length=0.00921465 bus1=p13udm34155.1.2 bus2=p13ulv98737.1.2 switch=n enabled=y phases=2 Linecode=1P_UG_AL_1/0_Brenau_2

New Line.l(r:p13udm34150-p13ulv96598) Units=km Length=0.00897127 bus1=p13udm34150.1.2 bus2=p13ulv96598.1.2 switch=n enabled=y phases=2 Linecode=1P_UG_AL_1/0_Brenau_2

New Line.l(r:p13udm34150-p13ulv98731) Units=km Length=0.00979343 bus1=p13udm34150.1.2 bus2=p13ulv98731.1.2 switch=n enabled=y phases=2 Linecode=1P_UG_AL_1/0_Brenau_2

New Line.l(r:p13udm34150-p13ulv100019) Units=km Length=0.00853719 bus1=p13udm34150.1.2 bus2=p13ulv100019.1.2 switch=n enabled=y phases=2 Linecode=1P_UG_AL_1/0_Brenau_2

New Line.l(r:p13udm34153-p13ulv98724) Units=km Length=0.00979364 bus1=p13udm34153.1.2 bus2=p13ulv98724.1.2 switch=n enabled=y phases=2 Linecode=1P_UG_AL_1/0_Brenau_2

New Line.l(r:p13udm34150-p13udm34153) Units=km Length=0.00989774 bus1=p13udm34150.1.2 bus2=p13udm34153.1.2 switch=n enabled=y phases=2 Linecode=1P_UG_AL_1/0_Brenau_2

New Line.l(r:p13udm34150-p13udm34155) Units=km Length=0.0198022 bus1=p13udm34155.1.2 bus2=p13udm34150.1.2 switch=n enabled=y phases=2 Linecode=1P_UG_AL_2/0_Converse_2

New Line.l(r:p13udm34155-p13udt8009lv) Units=km Length=0.00989774 bus1=p13udt8009lv.1.2 bus2=p13udm34155.1.2 switch=n enabled=y phases=2 Linecode=1P_UG_AL_4/0_Sweetbriar_2

New Line.l(r:p13udt8013lv-p13ulv17358) Units=km Length=0.0112247 bus1=p13udt8013lv.1.2 bus2=p13ulv17358.1.2 switch=n enabled=y phases=2 Linecode=1P_UG_AL_1/0_Brenau_2

New Line.l(r:p13udt8013lv-p13ulv96591) Units=km Length=0.0130968 bus1=p13udt8013lv.1.2 bus2=p13ulv96591.1.2 switch=n enabled=y phases=2 Linecode=1P_UG_AL_1/0_Brenau_2

New Line.l(r:p13udt8013lv-p13ulv96620) Units=km Length=0.046712 bus1=p13udt8013lv.1.2 bus2=p13ulv96620.1.2 switch=n enabled=y phases=2 Linecode=1P_UG_AL_1/0_Brenau_2

New Line.l(r:p13udm34178-p13ulv17351) Units=km Length=0.026813800000000002 bus1=p13udm34178.1.2 bus2=p13ulv17351.1.2 switch=n enabled=y phases=2 Linecode=1P_UG_AL_1/0_Brenau_2

New Line.l(r:p13udm34178-p13ulv96552) Units=km Length=0.010507000000000002 bus1=p13udm34178.1.2 bus2=p13ulv96552.1.2 switch=n enabled=y phases=2 Linecode=1P_UG_AL_1/0_Brenau_2

New Line.l(r:p13udm34178-p13ulv96632) Units=km Length=0.0484125 bus1=p13udm34178.1.2 bus2=p13ulv96632.1.2 switch=n enabled=y phases=2 Linecode=1P_UG_AL_1/0_Brenau_2

New Line.l(r:p13udm34185-p13ulv96609) Units=km Length=0.0114421 bus1=p13udm34185.1.2 bus2=p13ulv96609.1.2 switch=n enabled=y phases=2 Linecode=1P_UG_AL_1/0_Brenau_2

New Line.l(r:p13udm34178-p13udm34185) Units=km Length=0.00988507 bus1=p13udm34178.1.2 bus2=p13udm34185.1.2 switch=n enabled=y phases=2 Linecode=1P_UG_AL_1/0_Brenau_2

New Line.l(r:p13udm34178-p13udt8013lv) Units=km Length=0.00988433 bus1=p13udt8013lv.1.2 bus2=p13udm34178.1.2 switch=n enabled=y phases=2 Linecode=1P_UG_AL_4/0_Sweetbriar_2

New Line.l(r:p13udm34181-p13ulv17359) Units=km Length=0.012051 bus1=p13udm34181.1.2 bus2=p13ulv17359.1.2 switch=n enabled=y phases=2 Linecode=1P_UG_AL_1/0_Brenau_2

New Line.l(r:p13udm34179-p13ulv17353) Units=km Length=0.0123481 bus1=p13udm34179.1.2 bus2=p13ulv17353.1.2 switch=n enabled=y phases=2 Linecode=1P_UG_AL_1/0_Brenau_2

New Line.l(r:p13udm34179-p13ulv17360) Units=km Length=0.0113184 bus1=p13udm34179.1.2 bus2=p13ulv17360.1.2 switch=n enabled=y phases=2 Linecode=1P_UG_AL_1/0_Brenau_2

New Line.l(r:p13udm34179-p13udm34181) Units=km Length=0.00989176 bus1=p13udm34181.1.2 bus2=p13udm34179.1.2 switch=n enabled=y phases=2 Linecode=1P_UG_AL_4/0_Sweetbriar_2

New Line.l(r:p13udm34181-p13udt8013lv) Units=km Length=0.00988433 bus1=p13udt8013lv.1.2 bus2=p13udm34181.1.2 switch=n enabled=y phases=2 Linecode=1P_UG_AL_4/0_Sweetbriar_2

New Line.l(r:p13udm34188-p13ulv17356) Units=km Length=0.0126266 bus1=p13udm34188.1.2 bus2=p13ulv17356.1.2 switch=n enabled=y phases=2 Linecode=1P_UG_AL_1/0_Brenau_2

New Line.l(r:p13udm34188-p13ulv98749) Units=km Length=0.0123194 bus1=p13udm34188.1.2 bus2=p13ulv98749.1.2 switch=n enabled=y phases=2 Linecode=1P_UG_AL_1/0_Brenau_2

New Line.l(r:p13udm34188-p13udt8014lv) Units=km Length=0.00950084 bus1=p13udt8014lv.1.2 bus2=p13udm34188.1.2 switch=n enabled=y phases=2 Linecode=1P_UG_AL_2/0_Converse_2

New Line.l(r:p13udm34190-p13ulv98755) Units=km Length=0.0119577 bus1=p13udm34190.1.2 bus2=p13ulv98755.1.2 switch=n enabled=y phases=2 Linecode=1P_UG_AL_1/0_Brenau_2

New Line.l(r:p13udm34190-p13ulv98788) Units=km Length=0.0107546 bus1=p13udm34190.1.2 bus2=p13ulv98788.1.2 switch=n enabled=y phases=2 Linecode=1P_UG_AL_1/0_Brenau_2

New Line.l(r:p13udm34190-p13udt8014lv) Units=km Length=0.00950084 bus1=p13udt8014lv.1.2 bus2=p13udm34190.1.2 switch=n enabled=y phases=2 Linecode=1P_UG_AL_4/0_Sweetbriar_2

New Line.l(r:p13udm34193-p13ulv17362) Units=km Length=0.0100406 bus1=p13udm34193.1.2 bus2=p13ulv17362.1.2 switch=n enabled=y phases=2 Linecode=1P_UG_AL_1/0_Brenau_2

New Line.l(r:p13udm34193-p13ulv17364) Units=km Length=0.0119262 bus1=p13udm34193.1.2 bus2=p13ulv17364.1.2 switch=n enabled=y phases=2 Linecode=1P_UG_AL_1/0_Brenau_2

New Line.l(r:p13udm34197-p13ulv98354) Units=km Length=0.0291907 bus1=p13udm34197.1.2 bus2=p13ulv98354.1.2 switch=n enabled=y phases=2 Linecode=1P_UG_AL_1/0_Brenau_2

New Line.l(r:p13udm34193-p13udm34197) Units=km Length=0.00977789 bus1=p13udm34193.1.2 bus2=p13udm34197.1.2 switch=n enabled=y phases=2 Linecode=1P_UG_AL_1/0_Brenau_2

New Line.l(r:p13udm34193-p13udt8016lv) Units=km Length=0.00977039 bus1=p13udt8016lv.1.2 bus2=p13udm34193.1.2 switch=n enabled=y phases=2 Linecode=1P_UG_AL_4/0_Sweetbriar_2

New Line.l(r:p13udm34195-p13ulv93771) Units=km Length=0.00999414 bus1=p13udm34195.1.2 bus2=p13ulv93771.1.2 switch=n enabled=y phases=2 Linecode=1P_UG_AL_1/0_Brenau_2

New Line.l(r:p13udm34195-p13ulv98260) Units=km Length=0.0117476 bus1=p13udm34195.1.2 bus2=p13ulv98260.1.2 switch=n enabled=y phases=2 Linecode=1P_UG_AL_1/0_Brenau_2

New Line.l(r:p13udm34195-p13udt8016lv) Units=km Length=0.00977789 bus1=p13udt8016lv.1.2 bus2=p13udm34195.1.2 switch=n enabled=y phases=2 Linecode=1P_UG_AL_2/0_Converse_2

New Line.l(r:p13udt8017lv-p13ulv17365) Units=km Length=0.0116794 bus1=p13udt8017lv.1.2 bus2=p13ulv17365.1.2 switch=n enabled=y phases=2 Linecode=1P_OH_AL_2/0_Rucina_2

New Line.l(r:p13udt8017lv-p13ulv100106) Units=km Length=0.0145427 bus1=p13udt8017lv.1.2 bus2=p13ulv100106.1.2 switch=n enabled=y phases=2 Linecode=1P_OH_AL_2/0_Rucina_2

New Line.l(r:p13udm34199-p13ulv98262) Units=km Length=0.0505161 bus1=p13udm34199.1.2 bus2=p13ulv98262.1.2 switch=n enabled=y phases=2 Linecode=1P_OH_AL_4/0_Zuzara_2

New Line.l(r:p13udm34199-p13udt8017lv) Units=km Length=0.016708100000000004 bus1=p13udt8017lv.1.2 bus2=p13udm34199.1.2 switch=n enabled=y phases=2 Linecode=1P_OH_AL_2/0_Rucina_2

New Line.l(r:p13udt8018lv-p13ulv17366) Units=km Length=0.0505484 bus1=p13udt8018lv.1.2 bus2=p13ulv17366.1.2 switch=n enabled=y phases=2 Linecode=1P_UG_AL_4/0_Sweetbriar_2

New Line.l(r:p13udt8018lv-p13ulv100166) Units=km Length=0.0526966 bus1=p13udt8018lv.1.2 bus2=p13ulv100166.1.2 switch=n enabled=y phases=2 Linecode=1P_UG_AL_1/0_Brenau_2

New Line.l(r:p13udm34202-p13ulv17400) Units=km Length=0.00773802 bus1=p13udm34202.1.2 bus2=p13ulv17400.1.2 switch=n enabled=y phases=2 Linecode=1P_UG_AL_1/0_Brenau_2

New Line.l(r:p13udm34202-p13ulv100089) Units=km Length=0.009413950000000003 bus1=p13udm34202.1.2 bus2=p13ulv100089.1.2 switch=n enabled=y phases=2 Linecode=1P_UG_AL_1/0_Brenau_2

New Line.l(r:p13udm34202-p13udt8018lv) Units=km Length=0.009472 bus1=p13udt8018lv.1.2 bus2=p13udm34202.1.2 switch=n enabled=y phases=2 Linecode=1P_UG_AL_1/0_Brenau_2

New Line.l(r:p13udm34204-p13ulv100118) Units=km Length=0.0168676 bus1=p13udm34204.1.2 bus2=p13ulv100118.1.2 switch=n enabled=y phases=2 Linecode=1P_OH_AL_2/0_Rucina_2_5

New Line.l(r:p13udm34204-p13udt8018lv) Units=km Length=0.018228 bus1=p13udt8018lv.1.2 bus2=p13udm34204.1.2 switch=n enabled=y phases=2 Linecode=1P_OH_AL_2/0_Rucina_2_5

New Line.l(r:p13udt8019lv-p13ulv17367) Units=km Length=0.04145220000000001 bus1=p13udt8019lv.1.2 bus2=p13ulv17367.1.2 switch=n enabled=y phases=2 Linecode=1P_UG_AL_1/0_Brenau_2

...