voltage-tiling/data/p13u_violations/p13uhs22_1247--p13udt26466/Transformers.dss
New Transformer.tr(r:p13udt4537-p13udt4537lv) phases=1 windings=3 %loadloss=0.49926 %Noloadloss=0.38 normhkva=82.5 wdg=1 conn=wye bus=p13udt4537.1 Kv=7.2 kva=75.0 EmergHKVA=112.5 %r=0.16642 wdg=2 conn=wye bus=p13udt4537lv.1.0 Kv=0.12 kva=75.0 EmergHKVA=112.5 %r=0.33284 wdg=3 conn=wye bus=p13udt4537lv.0.2 Kv=0.12 kva=75.0 EmergHKVA=112.5 %r=0.33284 XHL=2.4 XLT=2.4 XHT=1.6

New Transformer.tr(r:p13udt4538-p13udt4538lv) phases=1 windings=3 %loadloss=0.798816 %Noloadloss=0.37 normhkva=55.0 wdg=1 conn=wye bus=p13udt4538.3 Kv=7.2 kva=50.0 EmergHKVA=75.0 %r=0.266272 wdg=2 conn=wye bus=p13udt4538lv.1.0 Kv=0.12 kva=50.0 EmergHKVA=75.0 %r=0.532544 wdg=3 conn=wye bus=p13udt4538lv.0.2 Kv=0.12 kva=50.0 EmergHKVA=75.0 %r=0.532544 XHL=2.4 XLT=2.4 XHT=1.6

New Transformer.tr(r:p13udt4541-p13udt4541lv) phases=1 windings=3 %loadloss=0.798816 %Noloadloss=0.472 normhkva=27.5 wdg=1 conn=wye bus=p13udt4541.3 Kv=7.2 kva=25.0 EmergHKVA=37.5 %r=0.266272 wdg=2 conn=wye bus=p13udt4541lv.1.0 Kv=0.12 kva=25.0 EmergHKVA=37.5 %r=0.532544 wdg=3 conn=wye bus=p13udt4541lv.0.2 Kv=0.12 kva=25.0 EmergHKVA=37.5 %r=0.532544 XHL=2.4 XLT=2.4 XHT=1.6

New Transformer.tr(r:p13udt6440-p13udt6440lv) phases=1 windings=3 %loadloss=0.798816 %Noloadloss=0.37 normhkva=55.0 wdg=1 conn=wye bus=p13udt6440.1 Kv=7.2 kva=50.0 EmergHKVA=75.0 %r=0.266272 wdg=2 conn=wye bus=p13udt6440lv.1.0 Kv=0.12 kva=50.0 EmergHKVA=75.0 %r=0.532544 wdg=3 conn=wye bus=p13udt6440lv.0.2 Kv=0.12 kva=50.0 EmergHKVA=75.0 %r=0.532544 XHL=2.4 XLT=2.4 XHT=1.6

New Transformer.tr(r:p13udt6441-p13udt6441lv) phases=1 windings=3 %loadloss=0.49926 %Noloadloss=0.38 normhkva=82.5 wdg=1 conn=wye bus=p13udt6441.2 Kv=7.2 kva=75.0 EmergHKVA=112.5 %r=0.16642 wdg=2 conn=wye bus=p13udt6441lv.1.0 Kv=0.12 kva=75.0 EmergHKVA=112.5 %r=0.33284 wdg=3 conn=wye bus=p13udt6441lv.0.2 Kv=0.12 kva=75.0 EmergHKVA=112.5 %r=0.33284 XHL=2.4 XLT=2.4 XHT=1.6

New Transformer.tr(r:p13udt6442-p13udt6442lv) phases=1 windings=3 %loadloss=0.49926 %Noloadloss=0.38 normhkva=82.5 wdg=1 conn=wye bus=p13udt6442.3 Kv=7.2 kva=75.0 EmergHKVA=112.5 %r=0.16642 wdg=2 conn=wye bus=p13udt6442lv.1.0 Kv=0.12 kva=75.0 EmergHKVA=112.5 %r=0.33284 wdg=3 conn=wye bus=p13udt6442lv.0.2 Kv=0.12 kva=75.0 EmergHKVA=112.5 %r=0.33284 XHL=2.4 XLT=2.4 XHT=1.6

New Transformer.tr(r:p13udt6443-p13udt6443lv) phases=1 windings=3 %loadloss=0.49926 %Noloadloss=0.38 normhkva=82.5 wdg=1 conn=wye bus=p13udt6443.1 Kv=7.2 kva=75.0 EmergHKVA=112.5 %r=0.16642 wdg=2 conn=wye bus=p13udt6443lv.1.0 Kv=0.12 kva=75.0 EmergHKVA=112.5 %r=0.33284 wdg=3 conn=wye bus=p13udt6443lv.0.2 Kv=0.12 kva=75.0 EmergHKVA=112.5 %r=0.33284 XHL=2.4 XLT=2.4 XHT=1.6

New Transformer.tr(r:p13udt6447-p13udt6447lv) phases=1 windings=3 %loadloss=0.49926 %Noloadloss=0.38 normhkva=82.5 wdg=1 conn=wye bus=p13udt6447.3 Kv=7.2 kva=75.0 EmergHKVA=112.5 %r=0.16642 wdg=2 conn=wye bus=p13udt6447lv.1.0 Kv=0.12 kva=75.0 EmergHKVA=112.5 %r=0.33284 wdg=3 conn=wye bus=p13udt6447lv.0.2 Kv=0.12 kva=75.0 EmergHKVA=112.5 %r=0.33284 XHL=2.4 XLT=2.4 XHT=1.6

New Transformer.tr(r:p13udt6448-p13udt6448lv) phases=1 windings=3 %loadloss=0.49926 %Noloadloss=0.38 normhkva=82.5 wdg=1 conn=wye bus=p13udt6448.2 Kv=7.2 kva=75.0 EmergHKVA=112.5 %r=0.16642 wdg=2 conn=wye bus=p13udt6448lv.1.0 Kv=0.12 kva=75.0 EmergHKVA=112.5 %r=0.33284 wdg=3 conn=wye bus=p13udt6448lv.0.2 Kv=0.12 kva=75.0 EmergHKVA=112.5 %r=0.33284 XHL=2.4 XLT=2.4 XHT=1.6

New Transformer.tr(r:p13udt6449-p13udt6449lv) phases=3 windings=2 %loadloss=1.61095 %Noloadloss=0.62 normhkva=110.0 wdg=1 conn=wye Kv=12.47 kva=100.0 EmergHKVA=150.0 %R=0.805475 bus=p13udt6449 wdg=2 conn=wye Kv=0.48 kva=100.0 EmergHKVA=150.0 %R=0.805475 bus=p13udt6449lv XHL=3.29

New Transformer.tr(r:p13udt6450-p13udt6450lv) phases=1 windings=3 %loadloss=0.798816 %Noloadloss=0.37 normhkva=55.0 wdg=1 conn=wye bus=p13udt6450.3 Kv=7.2 kva=50.0 EmergHKVA=75.0 %r=0.266272 wdg=2 conn=wye bus=p13udt6450lv.1.0 Kv=0.12 kva=50.0 EmergHKVA=75.0 %r=0.532544 wdg=3 conn=wye bus=p13udt6450lv.0.2 Kv=0.12 kva=50.0 EmergHKVA=75.0 %r=0.532544 XHL=2.4 XLT=2.4 XHT=1.6

New Transformer.tr(r:p13udt6453-p13udt6453lv) phases=1 windings=3 %loadloss=0.798816 %Noloadloss=0.37 normhkva=55.0 wdg=1 conn=wye bus=p13udt6453.1 Kv=7.2 kva=50.0 EmergHKVA=75.0 %r=0.266272 wdg=2 conn=wye bus=p13udt6453lv.1.0 Kv=0.12 kva=50.0 EmergHKVA=75.0 %r=0.532544 wdg=3 conn=wye bus=p13udt6453lv.0.2 Kv=0.12 kva=50.0 EmergHKVA=75.0 %r=0.532544 XHL=2.4 XLT=2.4 XHT=1.6

New Transformer.tr(r:p13udt6454-p13udt6454lv) phases=3 windings=2 %loadloss=1.74408 %Noloadloss=0.6 normhkva=82.5 wdg=1 conn=wye Kv=12.47 kva=75.0 EmergHKVA=112.5 %R=0.87204 bus=p13udt6454 wdg=2 conn=wye Kv=0.48 kva=75.0 EmergHKVA=112.5 %R=0.87204 bus=p13udt6454lv XHL=3.2400000000000007

New Transformer.tr(r:p13udt6455-p13udt6455lv) phases=3 windings=2 %loadloss=1.61095 %Noloadloss=0.62 normhkva=110.0 wdg=1 conn=wye Kv=12.47 kva=100.0 EmergHKVA=150.0 %R=0.805475 bus=p13udt6455 wdg=2 conn=wye Kv=0.48 kva=100.0 EmergHKVA=150.0 %R=0.805475 bus=p13udt6455lv XHL=3.29

New Transformer.tr(r:p13udt6456-p13udt6456lv) phases=1 windings=3 %loadloss=0.49926 %Noloadloss=0.38 normhkva=82.5 wdg=1 conn=wye bus=p13udt6456.2 Kv=7.2 kva=75.0 EmergHKVA=112.5 %r=0.16642 wdg=2 conn=wye bus=p13udt6456lv.1.0 Kv=0.12 kva=75.0 EmergHKVA=112.5 %r=0.33284 wdg=3 conn=wye bus=p13udt6456lv.0.2 Kv=0.12 kva=75.0 EmergHKVA=112.5 %r=0.33284 XHL=2.4 XLT=2.4 XHT=1.6

New Transformer.tr(r:p13udt6457-p13udt6457lv) phases=1 windings=3 %loadloss=0.798816 %Noloadloss=0.37 normhkva=55.0 wdg=1 conn=wye bus=p13udt6457.3 Kv=7.2 kva=50.0 EmergHKVA=75.0 %r=0.266272 wdg=2 conn=wye bus=p13udt6457lv.1.0 Kv=0.12 kva=50.0 EmergHKVA=75.0 %r=0.532544 wdg=3 conn=wye bus=p13udt6457lv.0.2 Kv=0.12 kva=50.0 EmergHKVA=75.0 %r=0.532544 XHL=2.4 XLT=2.4 XHT=1.6

New Transformer.tr(r:p13udt6458-p13udt6458lv) phases=1 windings=3 %loadloss=0.49926 %Noloadloss=0.38 normhkva=82.5 wdg=1 conn=wye bus=p13udt6458.1 Kv=7.2 kva=75.0 EmergHKVA=112.5 %r=0.16642 wdg=2 conn=wye bus=p13udt6458lv.1.0 Kv=0.12 kva=75.0 EmergHKVA=112.5 %r=0.33284 wdg=3 conn=wye bus=p13udt6458lv.0.2 Kv=0.12 kva=75.0 EmergHKVA=112.5 %r=0.33284 XHL=2.4 XLT=2.4 XHT=1.6

New Transformer.tr(r:p13udt6459-p13udt6459lv) phases=1 windings=3 %loadloss=0.49926 %Noloadloss=0.38 normhkva=82.5 wdg=1 conn=wye bus=p13udt6459.2 Kv=7.2 kva=75.0 EmergHKVA=112.5 %r=0.16642 wdg=2 conn=wye bus=p13udt6459lv.1.0 Kv=0.12 kva=75.0 EmergHKVA=112.5 %r=0.33284 wdg=3 conn=wye bus=p13udt6459lv.0.2 Kv=0.12 kva=75.0 EmergHKVA=112.5 %r=0.33284 XHL=2.4 XLT=2.4 XHT=1.6

New Transformer.tr(r:p13udt6460-p13udt6460lv) phases=1 windings=3 %loadloss=0.49926 %Noloadloss=0.38 normhkva=82.5 wdg=1 conn=wye bus=p13udt6460.3 Kv=7.2 kva=75.0 EmergHKVA=112.5 %r=0.16642 wdg=2 conn=wye bus=p13udt6460lv.1.0 Kv=0.12 kva=75.0 EmergHKVA=112.5 %r=0.33284 wdg=3 conn=wye bus=p13udt6460lv.0.2 Kv=0.12 kva=75.0 EmergHKVA=112.5 %r=0.33284 XHL=2.4 XLT=2.4 XHT=1.6

New Transformer.tr(r:p13udt6461-p13udt6461lv) phases=1 windings=3 %loadloss=0.798816 %Noloadloss=0.37 normhkva=55.0 wdg=1 conn=wye bus=p13udt6461.2 Kv=7.2 kva=50.0 EmergHKVA=75.0 %r=0.266272 wdg=2 conn=wye bus=p13udt6461lv.1.0 Kv=0.12 kva=50.0 EmergHKVA=75.0 %r=0.532544 wdg=3 conn=wye bus=p13udt6461lv.0.2 Kv=0.12 kva=50.0 EmergHKVA=75.0 %r=0.532544 XHL=2.4 XLT=2.4 XHT=1.6

New Transformer.tr(r:p13udt6462-p13udt6462lv) phases=1 windings=3 %loadloss=0.798816 %Noloadloss=0.37 normhkva=55.0 wdg=1 conn=wye bus=p13udt6462.1 Kv=7.2 kva=50.0 EmergHKVA=75.0 %r=0.266272 wdg=2 conn=wye bus=p13udt6462lv.1.0 Kv=0.12 kva=50.0 EmergHKVA=75.0 %r=0.532544 wdg=3 conn=wye bus=p13udt6462lv.0.2 Kv=0.12 kva=50.0 EmergHKVA=75.0 %r=0.532544 XHL=2.4 XLT=2.4 XHT=1.6

New Transformer.tr(r:p13udt6463-p13udt6463lv) phases=1 windings=3 %loadloss=0.798816 %Noloadloss=0.37 normhkva=55.0 wdg=1 conn=wye bus=p13udt6463.3 Kv=7.2 kva=50.0 EmergHKVA=75.0 %r=0.266272 wdg=2 conn=wye bus=p13udt6463lv.1.0 Kv=0.12 kva=50.0 EmergHKVA=75.0 %r=0.532544 wdg=3 conn=wye bus=p13udt6463lv.0.2 Kv=0.12 kva=50.0 EmergHKVA=75.0 %r=0.532544 XHL=2.4 XLT=2.4 XHT=1.6

New Transformer.tr(r:p13udt6464-p13udt6464lv) phases=1 windings=3 %loadloss=0.49926 %Noloadloss=0.38 normhkva=82.5 wdg=1 conn=wye bus=p13udt6464.2 Kv=7.2 kva=100.0 EmergHKVA=112.5 %r=0.16642 wdg=2 conn=wye bus=p13udt6464lv.1.0 Kv=0.12 kva=100.0 EmergHKVA=112.5 %r=0.33284 wdg=3 conn=wye bus=p13udt6464lv.0.2 Kv=0.12 kva=100.0 EmergHKVA=112.5 %r=0.33284 XHL=2.4 XLT=2.4 XHT=1.6

New Transformer.tr(r:p13udt6465-p13udt6465lv) phases=3 windings=2 %loadloss=1.61095 %Noloadloss=0.62 normhkva=110.0 wdg=1 conn=wye Kv=12.47 kva=100.0 EmergHKVA=150.0 %R=0.805475 bus=p13udt6465 wdg=2 conn=wye Kv=0.48 kva=100.0 EmergHKVA=150.0 %R=0.805475 bus=p13udt6465lv XHL=3.29

New Transformer.tr(r:p13udt6466-p13udt6466lv) phases=1 windings=3 %loadloss=0.49926 %Noloadloss=0.38 normhkva=82.5 wdg=1 conn=wye bus=p13udt6466.1 Kv=7.2 kva=75.0 EmergHKVA=112.5 %r=0.16642 wdg=2 conn=wye bus=p13udt6466lv.1.0 Kv=0.12 kva=75.0 EmergHKVA=112.5 %r=0.33284 wdg=3 conn=wye bus=p13udt6466lv.0.2 Kv=0.12 kva=75.0 EmergHKVA=112.5 %r=0.33284 XHL=2.4 XLT=2.4 XHT=1.6

New Transformer.tr(r:p13udt6467-p13udt6467lv) phases=1 windings=3 %loadloss=0.49926 %Noloadloss=0.38 normhkva=82.5 wdg=1 conn=wye bus=p13udt6467.3 Kv=7.2 kva=75.0 EmergHKVA=112.5 %r=0.16642 wdg=2 conn=wye bus=p13udt6467lv.1.0 Kv=0.12 kva=75.0 EmergHKVA=112.5 %r=0.33284 wdg=3 conn=wye bus=p13udt6467lv.0.2 Kv=0.12 kva=75.0 EmergHKVA=112.5 %r=0.33284 XHL=2.4 XLT=2.4 XHT=1.6

New Transformer.tr(r:p13udt6468-p13udt6468lv) phases=1 windings=3 %loadloss=0.798816 %Noloadloss=0.37 normhkva=55.0 wdg=1 conn=wye bus=p13udt6468.1 Kv=7.2 kva=50.0 EmergHKVA=75.0 %r=0.266272 wdg=2 conn=wye bus=p13udt6468lv.1.0 Kv=0.12 kva=50.0 EmergHKVA=75.0 %r=0.532544 wdg=3 conn=wye bus=p13udt6468lv.0.2 Kv=0.12 kva=50.0 EmergHKVA=75.0 %r=0.532544 XHL=2.4 XLT=2.4 XHT=1.6

New Transformer.tr(r:p13udt6608-p13udt6608lv) phases=3 windings=2 %loadloss=1.74408 %Noloadloss=0.6 normhkva=82.5 wdg=1 conn=wye Kv=12.47 kva=75.0 EmergHKVA=112.5 %R=0.87204 bus=p13udt6608 wdg=2 conn=wye Kv=0.48 kva=75.0 EmergHKVA=112.5 %R=0.87204 bus=p13udt6608lv XHL=3.2400000000000007

New Transformer.tr(r:p13udt6612-p13udt6612lv) phases=3 windings=2 %loadloss=1.74408 %Noloadloss=0.6 normhkva=82.5 wdg=1 conn=wye Kv=12.47 kva=75.0 EmergHKVA=112.5 %R=0.87204 bus=p13udt6612 wdg=2 conn=wye Kv=0.48 kva=75.0 EmergHKVA=112.5 %R=0.87204 bus=p13udt6612lv XHL=3.2400000000000007

New Transformer.tr(r:p13udt6613-p13udt6613lv) phases=3 windings=2 %loadloss=1.74408 %Noloadloss=0.6 normhkva=82.5 wdg=1 conn=wye Kv=12.47 kva=75.0 EmergHKVA=112.5 %R=0.87204 bus=p13udt6613 wdg=2 conn=wye Kv=0.48 kva=75.0 EmergHKVA=112.5 %R=0.87204 bus=p13udt6613lv XHL=3.2400000000000007

New Transformer.tr(r:p13udt6614-p13udt6614lv) phases=3 windings=2 %loadloss=2.1568 %Noloadloss=0.516667 normhkva=165.0 wdg=1 conn=wye Kv=12.47 kva=150.0 EmergHKVA=225.0 %R=1.0784 bus=p13udt6614 wdg=2 conn=wye Kv=0.48 kva=150.0 EmergHKVA=225.0 %R=1.0784 bus=p13udt6614lv XHL=3.39

New Transformer.tr(r:p13udt6615-p13udt6615lv) phases=3 windings=2 %loadloss=1.61095 %Noloadloss=0.62 normhkva=110.0 wdg=1 conn=wye Kv=12.47 kva=100.0 EmergHKVA=150.0 %R=0.805475 bus=p13udt6615 wdg=2 conn=wye Kv=0.48 kva=100.0 EmergHKVA=150.0 %R=0.805475 bus=p13udt6615lv XHL=3.29

New Transformer.tr(r:p13udt6616-p13udt6616lv) phases=1 windings=3 %loadloss=0.798816 %Noloadloss=0.472 normhkva=27.5 wdg=1 conn=wye bus=p13udt6616.1 Kv=7.2 kva=25.0 EmergHKVA=37.5 %r=0.266272 wdg=2 conn=wye bus=p13udt6616lv.1.0 Kv=0.12 kva=25.0 EmergHKVA=37.5 %r=0.532544 wdg=3 conn=wye bus=p13udt6616lv.0.2 Kv=0.12 kva=25.0 EmergHKVA=37.5 %r=0.532544 XHL=2.4 XLT=2.4 XHT=1.6

New Transformer.tr(r:p13udt6617-p13udt6617lv) phases=3 windings=2 %loadloss=1.74408 %Noloadloss=0.6 normhkva=82.5 wdg=1 conn=wye Kv=12.47 kva=75.0 EmergHKVA=112.5 %R=0.87204 bus=p13udt6617 wdg=2 conn=wye Kv=0.48 kva=75.0 EmergHKVA=112.5 %R=0.87204 bus=p13udt6617lv XHL=3.2400000000000007

New Transformer.tr(r:p13udt6618-p13udt6618lv) phases=3 windings=2 %loadloss=2.1568 %Noloadloss=0.516667 normhkva=165.0 wdg=1 conn=wye Kv=12.47 kva=150.0 EmergHKVA=225.0 %R=1.0784 bus=p13udt6618 wdg=2 conn=wye Kv=0.48 kva=150.0 EmergHKVA=225.0 %R=1.0784 bus=p13udt6618lv XHL=3.39

New Transformer.tr(r:p13udt7835-p13udt7835lv) phases=1 windings=3 %loadloss=0.49926 %Noloadloss=0.38 normhkva=82.5 wdg=1 conn=wye bus=p13udt7835.3 Kv=7.2 kva=75.0 EmergHKVA=112.5 %r=0.16642 wdg=2 conn=wye bus=p13udt7835lv.1.0 Kv=0.12 kva=75.0 EmergHKVA=112.5 %r=0.33284 wdg=3 conn=wye bus=p13udt7835lv.0.2 Kv=0.12 kva=75.0 EmergHKVA=112.5 %r=0.33284 XHL=2.4 XLT=2.4 XHT=1.6

New Transformer.tr(r:p13udt7836-p13udt7836lv) phases=3 windings=2 %loadloss=1.74408 %Noloadloss=0.6 normhkva=82.5 wdg=1 conn=wye Kv=12.47 kva=75.0 EmergHKVA=112.5 %R=0.87204 bus=p13udt7836 wdg=2 conn=wye Kv=0.48 kva=75.0 EmergHKVA=112.5 %R=0.87204 bus=p13udt7836lv XHL=3.2400000000000007

New Transformer.tr(r:p13udt7837-p13udt7837lv) phases=1 windings=3 %loadloss=0.798816 %Noloadloss=0.472 normhkva=27.5 wdg=1 conn=wye bus=p13udt7837.3 Kv=7.2 kva=25.0 EmergHKVA=37.5 %r=0.266272 wdg=2 conn=wye bus=p13udt7837lv.1.0 Kv=0.12 kva=25.0 EmergHKVA=37.5 %r=0.532544 wdg=3 conn=wye bus=p13udt7837lv.0.2 Kv=0.12 kva=25.0 EmergHKVA=37.5 %r=0.532544 XHL=2.4 XLT=2.4 XHT=1.6

New Transformer.tr(r:p13udt7838-p13udt7838lv) phases=1 windings=3 %loadloss=0.798816 %Noloadloss=0.37 normhkva=55.0 wdg=1 conn=wye bus=p13udt7838.3 Kv=7.2 kva=50.0 EmergHKVA=75.0 %r=0.266272 wdg=2 conn=wye bus=p13udt7838lv.1.0 Kv=0.12 kva=50.0 EmergHKVA=75.0 %r=0.532544 wdg=3 conn=wye bus=p13udt7838lv.0.2 Kv=0.12 kva=50.0 EmergHKVA=75.0 %r=0.532544 XHL=2.4 XLT=2.4 XHT=1.6

New Transformer.tr(r:p13udt7839-p13udt7839lv) phases=1 windings=3 %loadloss=0.798816 %Noloadloss=0.37 normhkva=55.0 wdg=1 conn=wye bus=p13udt7839.2 Kv=7.2 kva=50.0 EmergHKVA=75.0 %r=0.266272 wdg=2 conn=wye bus=p13udt7839lv.1.0 Kv=0.12 kva=50.0 EmergHKVA=75.0 %r=0.532544 wdg=3 conn=wye bus=p13udt7839lv.0.2 Kv=0.12 kva=50.0 EmergHKVA=75.0 %r=0.532544 XHL=2.4 XLT=2.4 XHT=1.6

New Transformer.tr(r:p13udt7840-p13udt7840lv) phases=1 windings=3 %loadloss=0.798816 %Noloadloss=0.37 normhkva=55.0 wdg=1 conn=wye bus=p13udt7840.1 Kv=7.2 kva=50.0 EmergHKVA=75.0 %r=0.266272 wdg=2 conn=wye bus=p13udt7840lv.1.0 Kv=0.12 kva=50.0 EmergHKVA=75.0 %r=0.532544 wdg=3 conn=wye bus=p13udt7840lv.0.2 Kv=0.12 kva=50.0 EmergHKVA=75.0 %r=0.532544 XHL=2.4 XLT=2.4 XHT=1.6

New Transformer.tr(r:p13udt7841-p13udt7841lv) phases=1 windings=3 %loadloss=0.49926 %Noloadloss=0.38 normhkva=82.5 wdg=1 conn=wye bus=p13udt7841.2 Kv=7.2 kva=75.0 EmergHKVA=112.5 %r=0.16642 wdg=2 conn=wye bus=p13udt7841lv.1.0 Kv=0.12 kva=75.0 EmergHKVA=112.5 %r=0.33284 wdg=3 conn=wye bus=p13udt7841lv.0.2 Kv=0.12 kva=75.0 EmergHKVA=112.5 %r=0.33284 XHL=2.4 XLT=2.4 XHT=1.6

New Transformer.tr(r:p13udt7845-p13udt7845lv) phases=1 windings=3 %loadloss=0.49926 %Noloadloss=0.38 normhkva=82.5 wdg=1 conn=wye bus=p13udt7845.3 Kv=7.2 kva=75.0 EmergHKVA=112.5 %r=0.16642 wdg=2 conn=wye bus=p13udt7845lv.1.0 Kv=0.12 kva=75.0 EmergHKVA=112.5 %r=0.33284 wdg=3 conn=wye bus=p13udt7845lv.0.2 Kv=0.12 kva=75.0 EmergHKVA=112.5 %r=0.33284 XHL=2.4 XLT=2.4 XHT=1.6

New Transformer.tr(r:p13udt7846-p13udt7846lv) phases=1 windings=3 %loadloss=0.798816 %Noloadloss=0.472 normhkva=27.5 wdg=1 conn=wye bus=p13udt7846.3 Kv=7.2 kva=25.0 EmergHKVA=37.5 %r=0.266272 wdg=2 conn=wye bus=p13udt7846lv.1.0 Kv=0.12 kva=25.0 EmergHKVA=37.5 %r=0.532544 wdg=3 conn=wye bus=p13udt7846lv.0.2 Kv=0.12 kva=25.0 EmergHKVA=37.5 %r=0.532544 XHL=2.4 XLT=2.4 XHT=1.6

...