voltage-tiling/data/p13u_violations/p13uhs22_1247--p13udt26466/Loads.dss
New Load.load_p13ulv10050_1 conn=wye bus1=p13ulv10050.1 kV=0.12 Vminpu=0.8 Vmaxpu=1.2 model=1 kW=21.457013539307297 kvar=3.9536224367029984 Phases=1 yearly=res_kw_237_pu

New Load.load_p13ulv10050_2 conn=wye bus1=p13ulv10050.2 kV=0.12 Vminpu=0.8 Vmaxpu=1.2 model=1 kW=21.457013539307297 kvar=3.9536224367029984 Phases=1 yearly=res_kw_237_pu

New Load.load_p13ulv10051_1 conn=wye bus1=p13ulv10051.1 kV=0.12 Vminpu=0.8 Vmaxpu=1.2 model=1 kW=1.7481913686991484 kvar=0.5291433991087306 Phases=1 yearly=res_kw_8093_pu

New Load.load_p13ulv10051_2 conn=wye bus1=p13ulv10051.2 kV=0.12 Vminpu=0.8 Vmaxpu=1.2 model=1 kW=1.7481913686991484 kvar=0.5291433991087306 Phases=1 yearly=res_kw_8093_pu

New Load.load_p13ulv10055_1 conn=wye bus1=p13ulv10055.1 kV=0.12 Vminpu=0.8 Vmaxpu=1.2 model=1 kW=10.560455844174841 kvar=3.8387194432812324 Phases=1 yearly=res_kw_1261_pu

New Load.load_p13ulv10055_2 conn=wye bus1=p13ulv10055.2 kV=0.12 Vminpu=0.8 Vmaxpu=1.2 model=1 kW=10.560455844174841 kvar=3.8387194432812324 Phases=1 yearly=res_kw_1261_pu

New Load.load_p13ulv14320_1 conn=wye bus1=p13ulv14320.1 kV=0.12 Vminpu=0.8 Vmaxpu=1.2 model=1 kW=10.495302647778507 kvar=4.671404601312129 Phases=1 yearly=res_kw_2954_pu

New Load.load_p13ulv14320_2 conn=wye bus1=p13ulv14320.2 kV=0.12 Vminpu=0.8 Vmaxpu=1.2 model=1 kW=10.495302647778507 kvar=4.671404601312129 Phases=1 yearly=res_kw_2954_pu

New Load.load_p13ulv14321_1 conn=wye bus1=p13ulv14321.1 kV=0.12 Vminpu=0.8 Vmaxpu=1.2 model=1 kW=10.455169377941509 kvar=2.7126664582391973 Phases=1 yearly=res_kw_7627_pu

New Load.load_p13ulv14321_2 conn=wye bus1=p13ulv14321.2 kV=0.12 Vminpu=0.8 Vmaxpu=1.2 model=1 kW=10.455169377941509 kvar=2.7126664582391973 Phases=1 yearly=res_kw_7627_pu

New Load.load_p13ulv14322_1 conn=wye bus1=p13ulv14322.1 kV=0.12 Vminpu=0.8 Vmaxpu=1.2 model=1 kW=8.52360274233525 kvar=2.0389323973229825 Phases=1 yearly=res_kw_6906_pu

New Load.load_p13ulv14322_2 conn=wye bus1=p13ulv14322.2 kV=0.12 Vminpu=0.8 Vmaxpu=1.2 model=1 kW=8.52360274233525 kvar=2.0389323973229825 Phases=1 yearly=res_kw_6906_pu

New Load.load_p13ulv14323_1 conn=wye bus1=p13ulv14323.1 kV=0.12 Vminpu=0.8 Vmaxpu=1.2 model=1 kW=18.119607044988047 kvar=3.18819015685763 Phases=1 yearly=res_kw_8006_pu

New Load.load_p13ulv14323_2 conn=wye bus1=p13ulv14323.2 kV=0.12 Vminpu=0.8 Vmaxpu=1.2 model=1 kW=18.119607044988047 kvar=3.18819015685763 Phases=1 yearly=res_kw_8006_pu

New Load.load_p13ulv14329_1 conn=wye bus1=p13ulv14329.1 kV=0.12 Vminpu=0.8 Vmaxpu=1.2 model=1 kW=5.057928166989142 kvar=0.1883767745844791 Phases=1 yearly=res_kw_15217_pu

New Load.load_p13ulv14329_2 conn=wye bus1=p13ulv14329.2 kV=0.12 Vminpu=0.8 Vmaxpu=1.2 model=1 kW=5.057928166989142 kvar=0.1883767745844791 Phases=1 yearly=res_kw_15217_pu

New Load.load_p13ulv14330_1 conn=wye bus1=p13ulv14330.1 kV=0.12 Vminpu=0.8 Vmaxpu=1.2 model=1 kW=3.8249517279712286 kvar=0.9876552030064008 Phases=1 yearly=res_kw_3019_pu

New Load.load_p13ulv14330_2 conn=wye bus1=p13ulv14330.2 kV=0.12 Vminpu=0.8 Vmaxpu=1.2 model=1 kW=3.8249517279712286 kvar=0.9876552030064008 Phases=1 yearly=res_kw_3019_pu

New Load.load_p13ulv14331_1 conn=wye bus1=p13ulv14331.1 kV=0.12 Vminpu=0.8 Vmaxpu=1.2 model=1 kW=9.633169909207822 kvar=1.3028153557478144 Phases=1 yearly=res_kw_9830_pu

New Load.load_p13ulv14331_2 conn=wye bus1=p13ulv14331.2 kV=0.12 Vminpu=0.8 Vmaxpu=1.2 model=1 kW=9.633169909207822 kvar=1.3028153557478144 Phases=1 yearly=res_kw_9830_pu

New Load.load_p13ulv14338_1 conn=wye bus1=p13ulv14338.1 kV=0.12 Vminpu=0.8 Vmaxpu=1.2 model=1 kW=6.1588361592850465 kvar=1.650578323214133 Phases=1 yearly=res_kw_5750_pu

New Load.load_p13ulv14338_2 conn=wye bus1=p13ulv14338.2 kV=0.12 Vminpu=0.8 Vmaxpu=1.2 model=1 kW=6.1588361592850465 kvar=1.650578323214133 Phases=1 yearly=res_kw_5750_pu

New Load.load_p13ulv14339_1 conn=wye bus1=p13ulv14338.1 kV=0.12 Vminpu=0.8 Vmaxpu=1.2 model=1 kW=2.4549533772326604 kvar=0.9010542386153721 Phases=1 yearly=res_kw_6375_pu

New Load.load_p13ulv14339_2 conn=wye bus1=p13ulv14338.2 kV=0.12 Vminpu=0.8 Vmaxpu=1.2 model=1 kW=2.4549533772326604 kvar=0.9010542386153721 Phases=1 yearly=res_kw_6375_pu

New Load.load_p13ulv14342_1 conn=wye bus1=p13ulv14342.1 kV=0.12 Vminpu=0.8 Vmaxpu=1.2 model=1 kW=7.043744081036207 kvar=1.3364700722397445 Phases=1 yearly=res_kw_1142_pu

New Load.load_p13ulv14342_2 conn=wye bus1=p13ulv14342.2 kV=0.12 Vminpu=0.8 Vmaxpu=1.2 model=1 kW=7.043744081036207 kvar=1.3364700722397445 Phases=1 yearly=res_kw_1142_pu

New Load.load_p13ulv14343_1 conn=wye bus1=p13ulv14343.1 kV=0.12 Vminpu=0.8 Vmaxpu=1.2 model=1 kW=3.5094733942856577 kvar=0.7196025543323536 Phases=1 yearly=res_kw_3030_pu

New Load.load_p13ulv14343_2 conn=wye bus1=p13ulv14343.2 kV=0.12 Vminpu=0.8 Vmaxpu=1.2 model=1 kW=3.5094733942856577 kvar=0.7196025543323536 Phases=1 yearly=res_kw_3030_pu

New Load.load_p13ulv14346 conn=wye bus1=p13ulv14346.1.2.3 kV=0.48 Vminpu=0.8 Vmaxpu=1.2 model=1 kW=38.417680387024994 kvar=11.119996427590042 Phases=3 yearly=com_kw_39091_pu

...